@<TRIPOS>MOLECULE
A:ATP381
    43    45     1     0     0
SMALL
USER_CHARGES
****
Generated from the CSD

@<TRIPOS>ATOM
     1 PG      -3.4933  25.0773  15.4500   P.3       1 ATP381   0.0000
     2 O1G     -4.0092  24.8297  16.7891   O.co2     1 ATP381  -1.0000
     3 O2G     -3.1452  26.4917  15.1549   O.co2     1 ATP381  -1.0000
     4 O3G     -4.6100  24.6754  14.5053   O.co2     1 ATP381  -1.0000
     5 PB      -1.1217  24.3347  14.0182   P.3       1 ATP381   0.0000
     6 O1B     -0.6438  25.7334  14.0012   O.co2     1 ATP381  -1.0000
     7 O2B     -0.1140  23.2839  14.0657   O.co2     1 ATP381  -1.0000
     8 O3B     -2.2775  24.1353  15.0964   O.3       1 ATP381   0.0000
     9 PA      -2.4490  25.3156  11.6513   P.3       1 ATP381   0.0000
    10 O1A     -3.5481  24.6269  10.8746   O.co2     1 ATP381  -1.0000
    11 O2A     -2.7469  26.6157  12.1928   O.co2     1 ATP381  -1.0000
    12 O3A     -2.0870  24.1573  12.7457   O.3       1 ATP381   0.0000
    13 O5'     -1.1825  25.4054  10.6921   O.3       1 ATP381   0.0000
    14 C5'     -0.9576  24.3656   9.7204   C.3       1 ATP381   0.0000
    15 C4'      0.5013  24.5962   9.3043   C.3       1 ATP381   0.0000
    16 O4'      0.5770  25.7204   8.4196   O.3       1 ATP381   0.0000
    17 C3'      1.3605  24.9499  10.5233   C.3       1 ATP381   0.0000
    18 O3'      2.6715  24.3915  10.3145   O.3       1 ATP381   0.0000
    19 C2'      1.4676  26.5122  10.4387   C.3       1 ATP381   0.0000
    20 O2'      2.8306  26.8207  10.8290   O.3       1 ATP381   0.0000
    21 C1'      1.3896  26.7395   8.9136   C.3       1 ATP381   0.0000
    22 N9       0.7245  27.9928   8.5704   N.pl3     1 ATP381   0.0000
    23 C8      -0.2913  28.4922   9.3112   C.2       1 ATP381   0.0000
    24 N7      -0.5106  29.7266   9.1420   N.2       1 ATP381   0.0000
    25 C5       0.3750  30.1374   8.2583   C.ar      1 ATP381   0.0000
    26 C6       0.5654  31.4006   7.6905   C.ar      1 ATP381   0.0000
    27 N6      -0.0959  32.5212   7.9203   N.pl3     1 ATP381   0.0000
    28 N1       1.5711  31.4722   6.7902   N.ar      1 ATP381   0.0000
    29 C2       2.2681  30.3560   6.4620   C.ar      1 ATP381   0.0000
    30 N3       2.1683  29.1530   6.9681   N.ar      1 ATP381   0.0000
    31 C4       1.1652  29.0869   7.8524   C.ar      1 ATP381   0.0000
    32 H1       3.0681  24.7772   9.4899   H         1 ATP381   0.0000
    33 H2      -1.6293  24.4721   8.8699   H         1 ATP381   0.0000
    34 H3      -1.0874  23.3797  10.1642   H         1 ATP381   0.0000
    35 H4       0.8954  23.7072   8.8141   H         1 ATP381   0.0000
    36 H5       0.9118  24.6154  11.4575   H         1 ATP381   0.0000
    37 H6       0.7078  27.0440  11.0096   H         1 ATP381   0.0000
    38 H7       3.4623  26.3769  10.2043   H         1 ATP381   0.0000
    39 H8       2.3811  26.6937   8.4655   H         1 ATP381   0.0000
    40 H9      -0.8738  27.8804   9.9984   H         1 ATP381   0.0000
    41 H10      0.1584  33.3709   7.4268   H         1 ATP381   0.0000
    42 H11     -0.8583  32.5322   8.5904   H         1 ATP381   0.0000
    43 H12      3.0089  30.4766   5.6730   H         1 ATP381   0.0000
@<TRIPOS>BOND
     1     1     2   ar
     2     1     3   ar
     3     1     4   ar
     4     1     8    1
     5     5     6   ar
     6     5     7   ar
     7     5     8    1
     8     5    12    1
     9     9    10   ar
    10     9    11   ar
    11     9    12    1
    12     9    13    1
    13    13    14    1
    14    14    15    1
    15    15    16    1
    16    15    17    1
    17    16    21    1
    18    17    18    1
    19    17    19    1
    20    19    20    1
    21    19    21    1
    22    21    22    1
    23    22    23    1
    24    22    31    1
    25    23    24    2
    26    24    25    1
    27    25    26   ar
    28    25    31   ar
    29    26    27    1
    30    26    28   ar
    31    28    29   ar
    32    29    30   ar
    33    30    31   ar
    34    18    32    1
    35    14    33    1
    36    14    34    1
    37    15    35    1
    38    17    36    1
    39    19    37    1
    40    20    38    1
    41    21    39    1
    42    23    40    1
    43    27    41    1
    44    27    42    1
    45    29    43    1
@<TRIPOS>SUBSTRUCTURE
     1 ATP381      1 GROUP             0 A     ATP     0  
