@<TRIPOS>MOLECULE
constraints
     3     0     1     0     0
SMALL
NO_CHARGES
****
Generated from the CSD - Crystal connectivity not present

@<TRIPOS>ATOM
     1 Du      -0.3380  27.6514  15.5555   C.3       1 RES1   0.0000
     2 Du       4.8849  30.9913   5.6232   C.3       1 RES1   0.0000
     3 Du       2.8799  27.3304  13.7974   C.3       1 RES1   0.0000
@<TRIPOS>SUBSTRUCTURE
     1 RES1        1 GROUP             0 ****  ****    0  
