@<TRIPOS>MOLECULE
fitting_pts
  1821     0     1     0     0
SMALL
USER_CHARGES
****
Generated from the CSD - Crystal connectivity not present

@<TRIPOS>ATOM
     1 31.27    0.5000  31.0000   7.5000   C.3       1 RES1  31.2664
     2 31.27    0.5000  31.5000   7.5000   C.3       1 RES1  31.2664
     3 31.27    0.5000  32.0000   7.5000   C.3       1 RES1  31.2664
     4 31.27    1.0000  31.0000   7.5000   C.3       1 RES1  31.2664
     5 31.27    1.0000  31.5000   7.5000   C.3       1 RES1  31.2664
     6 31.27    1.0000  32.0000   7.5000   C.3       1 RES1  31.2664
     7 31.27    1.5000  31.0000   7.5000   C.3       1 RES1  31.2664
     8 31.27    1.5000  31.5000   7.5000   C.3       1 RES1  31.2664
     9 31.27    1.5000  32.0000   7.5000   C.3       1 RES1  31.2664
    10 24.83   -2.0000  26.5000  10.0000   C.3       1 RES1  24.8275
    11 24.83   -2.0000  26.5000  10.5000   C.3       1 RES1  24.8275
    12 24.83   -2.0000  26.5000  11.0000   C.3       1 RES1  24.8275
    13 24.83   -2.0000  27.0000  10.0000   C.3       1 RES1  24.8275
    14 24.83   -2.0000  27.0000  10.5000   C.3       1 RES1  24.8275
    15 24.83   -2.0000  27.0000  11.0000   C.3       1 RES1  24.8275
    16 24.83   -2.0000  27.5000  10.0000   C.3       1 RES1  24.8275
    17 24.83   -2.0000  27.5000  10.5000   C.3       1 RES1  24.8275
    18 24.83   -2.0000  27.5000  11.0000   C.3       1 RES1  24.8275
    19 24.83   -1.5000  26.5000  11.0000   C.3       1 RES1  24.8275
    20 24.83   -1.5000  27.0000  11.0000   C.3       1 RES1  24.8275
    21 24.83   -1.5000  27.5000  11.0000   C.3       1 RES1  24.8275
    22 24.83   -1.0000  26.5000  11.0000   C.3       1 RES1  24.8275
    23 24.83   -1.0000  27.0000  11.0000   C.3       1 RES1  24.8275
    24 24.83   -1.0000  27.5000  11.0000   C.3       1 RES1  24.8275
    25 26.37    0.0000  29.0000   9.0000   C.3       1 RES1  26.3658
    26 26.37    0.5000  29.0000   9.0000   C.3       1 RES1  26.3658
    27 26.37    1.0000  29.0000   9.0000   C.3       1 RES1  26.3658
    28 25.08    3.0000  28.0000   9.0000   C.3       1 RES1  25.0783
    29 24.00   -1.0000  28.0000  11.5000   C.3       1 RES1  23.9994
    30 25.16    0.0000  29.0000   7.0000   C.3       1 RES1  25.1642
    31 25.16    0.5000  29.0000   7.0000   C.3       1 RES1  25.1642
    32 25.16    1.0000  29.0000   7.0000   C.3       1 RES1  25.1642
    33 24.41   -1.5000  28.0000  10.5000   C.3       1 RES1  24.4052
    34 24.41   -1.5000  28.5000  10.5000   C.3       1 RES1  24.4052
    35 24.41   -1.5000  29.0000  10.5000   C.3       1 RES1  24.4052
    36 24.99    2.5000  26.0000   7.0000   C.3       1 RES1  24.9923
    37 24.99    3.0000  26.0000   7.0000   C.3       1 RES1  24.9923
    38 24.99    3.5000  26.0000   7.0000   C.3       1 RES1  24.9923
    39 24.02   -1.0000  29.0000   7.5000   C.3       1 RES1  24.0243
    40 24.51   -0.5000  31.0000  11.5000   C.3       1 RES1  24.5122
    41 25.59    1.0000  28.5000  13.0000   C.3       1 RES1  25.5872
    42 25.59    1.0000  29.0000  13.0000   C.3       1 RES1  25.5872
    43 25.59    1.0000  29.5000  13.0000   C.3       1 RES1  25.5872
    44 23.75    1.0000  31.5000   9.0000   C.3       1 RES1  23.7470
    45 24.09    2.0000  29.0000   8.0000   C.3       1 RES1  24.0911
    46 24.09    2.0000  29.0000   8.5000   C.3       1 RES1  24.0911
    47 24.09    2.0000  29.0000   9.0000   C.3       1 RES1  24.0911
    48 24.09    2.0000  29.5000   9.0000   C.3       1 RES1  24.0911
    49 24.09    2.0000  30.0000   9.0000   C.3       1 RES1  24.0911
    50 29.90    0.5000  32.5000   6.5000   C.3       1 RES1  29.9010
    51 29.90    0.5000  32.5000   7.0000   C.3       1 RES1  29.9010
    52 29.90    0.5000  32.5000   7.5000   C.3       1 RES1  29.9010
    53 29.90    1.0000  32.5000   6.5000   C.3       1 RES1  29.9010
    54 29.90    1.0000  32.5000   7.0000   C.3       1 RES1  29.9010
    55 29.90    1.0000  32.5000   7.5000   C.3       1 RES1  29.9010
    56 29.90    1.5000  32.5000   6.5000   C.3       1 RES1  29.9010
    57 29.90    1.5000  32.5000   7.0000   C.3       1 RES1  29.9010
    58 29.90    1.5000  32.5000   7.5000   C.3       1 RES1  29.9010
    59 24.74   -3.5000  30.0000   8.5000   C.3       1 RES1  24.7373
    60 24.74   -3.5000  30.0000   9.0000   C.3       1 RES1  24.7373
    61 24.74   -3.5000  30.0000   9.5000   C.3       1 RES1  24.7373
    62 30.74    0.0000  30.5000   7.0000   C.3       1 RES1  30.7390
    63 30.74    0.0000  30.5000   7.5000   C.3       1 RES1  30.7390
    64 30.74    0.0000  30.5000   8.0000   C.3       1 RES1  30.7390
    65 30.74    0.0000  31.0000   7.0000   C.3       1 RES1  30.7390
    66 30.74    0.0000  31.0000   7.5000   C.3       1 RES1  30.7390
    67 30.74    0.0000  31.0000   8.0000   C.3       1 RES1  30.7390
    68 30.74    0.0000  31.5000   7.0000   C.3       1 RES1  30.7390
    69 30.74    0.0000  31.5000   7.5000   C.3       1 RES1  30.7390
    70 30.74    0.0000  31.5000   8.0000   C.3       1 RES1  30.7390
    71 30.74    0.5000  30.5000   7.5000   C.3       1 RES1  30.7390
    72 30.74    0.5000  30.5000   8.0000   C.3       1 RES1  30.7390
    73 30.74    0.5000  31.0000   8.0000   C.3       1 RES1  30.7390
    74 30.74    0.5000  31.5000   8.0000   C.3       1 RES1  30.7390
    75 30.74    1.0000  30.5000   7.5000   C.3       1 RES1  30.7390
    76 30.74    1.0000  30.5000   8.0000   C.3       1 RES1  30.7390
    77 30.74    1.0000  31.0000   8.0000   C.3       1 RES1  30.7390
    78 30.74    1.0000  31.5000   8.0000   C.3       1 RES1  30.7390
    79 25.26    0.0000  31.5000   9.5000   C.3       1 RES1  25.2589
    80 25.26    0.0000  32.0000   9.5000   C.3       1 RES1  25.2589
    81 25.26    0.0000  32.5000   9.5000   C.3       1 RES1  25.2589
    82 24.96    0.5000  30.0000  10.5000   C.3       1 RES1  24.9615
    83 27.27    1.5000  27.0000   7.5000   C.3       1 RES1  27.2741
    84 27.27    1.5000  27.0000   8.0000   C.3       1 RES1  27.2741
    85 27.27    1.5000  27.0000   8.5000   C.3       1 RES1  27.2741
    86 27.27    1.5000  27.5000   7.5000   C.3       1 RES1  27.2741
    87 27.27    1.5000  27.5000   8.0000   C.3       1 RES1  27.2741
    88 27.27    1.5000  27.5000   8.5000   C.3       1 RES1  27.2741
    89 27.27    1.5000  28.0000   7.5000   C.3       1 RES1  27.2741
    90 27.27    1.5000  28.0000   8.0000   C.3       1 RES1  27.2741
    91 27.27    1.5000  28.0000   8.5000   C.3       1 RES1  27.2741
    92 25.31   -1.0000  29.0000  10.0000   C.3       1 RES1  25.3071
    93 25.31   -1.0000  29.0000  10.5000   C.3       1 RES1  25.3071
    94 25.31   -1.0000  29.0000  11.0000   C.3       1 RES1  25.3071
    95 25.31   -0.5000  29.0000  10.0000   C.3       1 RES1  25.3071
    96 25.31   -0.5000  29.0000  10.5000   C.3       1 RES1  25.3071
    97 25.31   -0.5000  29.0000  11.0000   C.3       1 RES1  25.3071
    98 25.31    0.0000  29.0000  10.0000   C.3       1 RES1  25.3071
    99 25.31    0.0000  29.0000  10.5000   C.3       1 RES1  25.3071
   100 24.06   -3.5000  33.0000  10.5000   C.3       1 RES1  24.0555
   101 24.12   -1.0000  31.5000  11.5000   C.3       1 RES1  24.1171
   102 25.02   -1.0000  32.0000  10.0000   C.3       1 RES1  25.0195
   103 25.02   -1.0000  32.0000  10.5000   C.3       1 RES1  25.0195
   104 25.02   -0.5000  31.5000  10.0000   C.3       1 RES1  25.0195
   105 25.02   -0.5000  31.5000  10.5000   C.3       1 RES1  25.0195
   106 25.02   -0.5000  32.0000  10.0000   C.3       1 RES1  25.0195
   107 25.02   -0.5000  32.0000  10.5000   C.3       1 RES1  25.0195
   108 25.09    2.5000  27.0000   6.5000   C.3       1 RES1  25.0894
   109 25.09    2.5000  27.5000   6.5000   C.3       1 RES1  25.0894
   110 25.09    2.5000  28.0000   6.5000   C.3       1 RES1  25.0894
   111 25.09    3.0000  27.0000   6.5000   C.3       1 RES1  25.0894
   112 25.09    3.0000  27.5000   6.5000   C.3       1 RES1  25.0894
   113 25.09    3.5000  27.0000   6.5000   C.3       1 RES1  25.0894
   114 25.09    3.5000  27.5000   6.5000   C.3       1 RES1  25.0894
   115 27.53   -5.0000  29.5000   9.0000   C.3       1 RES1  27.5269
   116 27.53   -5.0000  29.5000   9.5000   C.3       1 RES1  27.5269
   117 27.53   -5.0000  29.5000  10.0000   C.3       1 RES1  27.5269
   118 27.53   -4.5000  29.5000   9.0000   C.3       1 RES1  27.5269
   119 27.53   -4.5000  29.5000   9.5000   C.3       1 RES1  27.5269
   120 27.53   -4.5000  29.5000  10.0000   C.3       1 RES1  27.5269
   121 27.53   -4.0000  29.5000   9.0000   C.3       1 RES1  27.5269
   122 27.53   -4.0000  29.5000   9.5000   C.3       1 RES1  27.5269
   123 27.53   -4.0000  29.5000  10.0000   C.3       1 RES1  27.5269
   124 23.76   -1.5000  33.0000   9.5000   C.3       1 RES1  23.7612
   125 23.76   -1.0000  33.0000   9.5000   C.3       1 RES1  23.7612
   126 23.76   -0.5000  33.0000   9.5000   C.3       1 RES1  23.7612
   127 25.15   -1.0000  29.0000  11.5000   C.3       1 RES1  25.1459
   128 25.15   -0.5000  29.0000  11.5000   C.3       1 RES1  25.1459
   129 30.74    0.0000  32.0000   7.0000   C.3       1 RES1  30.7373
   130 30.74    0.0000  32.0000   7.5000   C.3       1 RES1  30.7373
   131 30.74    0.0000  32.0000   8.0000   C.3       1 RES1  30.7373
   132 30.74    0.5000  32.0000   8.0000   C.3       1 RES1  30.7373
   133 30.74    1.0000  32.0000   8.0000   C.3       1 RES1  30.7373
   134 25.98    0.0000  29.5000  10.0000   C.3       1 RES1  25.9831
   135 25.98    0.0000  29.5000  10.5000   C.3       1 RES1  25.9831
   136 24.77   -3.5000  27.0000  11.5000   C.3       1 RES1  24.7665
   137 24.77   -3.5000  27.0000  12.0000   C.3       1 RES1  24.7665
   138 24.77   -3.5000  27.0000  12.5000   C.3       1 RES1  24.7665
   139 24.77   -3.5000  27.5000  11.5000   C.3       1 RES1  24.7665
   140 24.77   -3.5000  27.5000  12.0000   C.3       1 RES1  24.7665
   141 24.77   -3.5000  27.5000  12.5000   C.3       1 RES1  24.7665
   142 24.77   -3.5000  28.0000  11.5000   C.3       1 RES1  24.7665
   143 24.77   -3.5000  28.0000  12.0000   C.3       1 RES1  24.7665
   144 24.77   -3.5000  28.0000  12.5000   C.3       1 RES1  24.7665
   145 24.77   -3.0000  27.0000  11.5000   C.3       1 RES1  24.7665
   146 24.77   -3.0000  27.0000  12.0000   C.3       1 RES1  24.7665
   147 24.77   -3.0000  27.0000  12.5000   C.3       1 RES1  24.7665
   148 24.77   -3.0000  27.5000  11.5000   C.3       1 RES1  24.7665
   149 24.77   -3.0000  27.5000  12.0000   C.3       1 RES1  24.7665
   150 24.77   -3.0000  27.5000  12.5000   C.3       1 RES1  24.7665
   151 24.77   -3.0000  28.0000  11.5000   C.3       1 RES1  24.7665
   152 24.77   -3.0000  28.0000  12.0000   C.3       1 RES1  24.7665
   153 24.77   -3.0000  28.0000  12.5000   C.3       1 RES1  24.7665
   154 24.77   -2.5000  27.0000  11.5000   C.3       1 RES1  24.7665
   155 24.77   -2.5000  27.5000  11.5000   C.3       1 RES1  24.7665
   156 24.77   -2.5000  28.0000  11.5000   C.3       1 RES1  24.7665
   157 29.87    0.0000  29.5000   7.5000   C.3       1 RES1  29.8702
   158 29.87    0.0000  29.5000   8.0000   C.3       1 RES1  29.8702
   159 29.87    0.0000  29.5000   8.5000   C.3       1 RES1  29.8702
   160 29.87    0.0000  30.0000   7.5000   C.3       1 RES1  29.8702
   161 29.87    0.0000  30.0000   8.0000   C.3       1 RES1  29.8702
   162 29.87    0.0000  30.0000   8.5000   C.3       1 RES1  29.8702
   163 29.87    0.0000  30.5000   8.5000   C.3       1 RES1  29.8702
   164 29.87    0.5000  29.5000   7.5000   C.3       1 RES1  29.8702
   165 29.87    0.5000  29.5000   8.0000   C.3       1 RES1  29.8702
   166 29.87    0.5000  29.5000   8.5000   C.3       1 RES1  29.8702
   167 29.87    0.5000  30.0000   7.5000   C.3       1 RES1  29.8702
   168 29.87    0.5000  30.0000   8.0000   C.3       1 RES1  29.8702
   169 29.87    0.5000  30.0000   8.5000   C.3       1 RES1  29.8702
   170 29.87    0.5000  30.5000   8.5000   C.3       1 RES1  29.8702
   171 29.87    1.0000  29.5000   7.5000   C.3       1 RES1  29.8702
   172 29.87    1.0000  29.5000   8.0000   C.3       1 RES1  29.8702
   173 29.87    1.0000  29.5000   8.5000   C.3       1 RES1  29.8702
   174 29.87    1.0000  30.0000   7.5000   C.3       1 RES1  29.8702
   175 29.87    1.0000  30.0000   8.0000   C.3       1 RES1  29.8702
   176 29.87    1.0000  30.0000   8.5000   C.3       1 RES1  29.8702
   177 29.87    1.0000  30.5000   8.5000   C.3       1 RES1  29.8702
   178 24.38   -4.5000  29.5000   7.5000   C.3       1 RES1  24.3803
   179 24.38   -4.5000  29.5000   8.0000   C.3       1 RES1  24.3803
   180 24.38   -4.5000  30.0000   7.5000   C.3       1 RES1  24.3803
   181 24.38   -4.5000  30.0000   8.0000   C.3       1 RES1  24.3803
   182 24.38   -4.5000  30.5000   7.5000   C.3       1 RES1  24.3803
   183 24.38   -4.5000  30.5000   8.0000   C.3       1 RES1  24.3803
   184 24.38   -4.5000  30.5000   8.5000   C.3       1 RES1  24.3803
   185 24.38   -4.0000  29.5000   7.5000   C.3       1 RES1  24.3803
   186 24.38   -4.0000  29.5000   8.0000   C.3       1 RES1  24.3803
   187 24.38   -4.0000  30.0000   7.5000   C.3       1 RES1  24.3803
   188 24.38   -4.0000  30.0000   8.0000   C.3       1 RES1  24.3803
   189 24.38   -4.0000  30.5000   7.5000   C.3       1 RES1  24.3803
   190 24.38   -4.0000  30.5000   8.0000   C.3       1 RES1  24.3803
   191 24.38   -4.0000  30.5000   8.5000   C.3       1 RES1  24.3803
   192 24.38   -3.5000  29.5000   7.5000   C.3       1 RES1  24.3803
   193 24.38   -3.5000  29.5000   8.0000   C.3       1 RES1  24.3803
   194 24.38   -3.5000  30.0000   7.5000   C.3       1 RES1  24.3803
   195 24.38   -3.5000  30.0000   8.0000   C.3       1 RES1  24.3803
   196 24.38   -3.5000  30.5000   7.5000   C.3       1 RES1  24.3803
   197 24.38   -3.5000  30.5000   8.0000   C.3       1 RES1  24.3803
   198 24.38   -3.5000  30.5000   8.5000   C.3       1 RES1  24.3803
   199 25.99    1.0000  32.5000   8.5000   C.3       1 RES1  25.9940
   200 25.58   -5.5000  29.5000   9.5000   C.3       1 RES1  25.5813
   201 25.58   -5.5000  29.5000  10.0000   C.3       1 RES1  25.5813
   202 25.58   -5.5000  29.5000  10.5000   C.3       1 RES1  25.5813
   203 24.78    0.5000  27.5000  12.0000   C.3       1 RES1  24.7795
   204 24.78    0.5000  27.5000  12.5000   C.3       1 RES1  24.7795
   205 24.78    0.5000  27.5000  13.0000   C.3       1 RES1  24.7795
   206 24.77   -5.5000  30.0000   9.5000   C.3       1 RES1  24.7681
   207 24.77   -5.5000  30.0000  10.0000   C.3       1 RES1  24.7681
   208 24.77   -5.5000  30.0000  10.5000   C.3       1 RES1  24.7681
   209 25.64   -3.5000  28.0000   9.0000   C.3       1 RES1  25.6367
   210 24.12    1.5000  30.0000  11.0000   C.3       1 RES1  24.1196
   211 26.22   -1.5000  31.0000  10.0000   C.3       1 RES1  26.2243
   212 26.22   -1.0000  31.0000  11.0000   C.3       1 RES1  26.2243
   213 26.22   -0.5000  31.0000  11.0000   C.3       1 RES1  26.2243
   214 24.45   -3.0000  28.5000  11.5000   C.3       1 RES1  24.4521
   215 24.45   -3.0000  28.5000  12.0000   C.3       1 RES1  24.4521
   216 24.45   -3.0000  28.5000  12.5000   C.3       1 RES1  24.4521
   217 24.45   -2.5000  28.5000  11.5000   C.3       1 RES1  24.4521
   218 24.45   -2.0000  27.5000  11.5000   C.3       1 RES1  24.4521
   219 24.45   -2.0000  28.0000  11.5000   C.3       1 RES1  24.4521
   220 24.45   -2.0000  28.5000  11.5000   C.3       1 RES1  24.4521
   221 23.84   -3.0000  30.5000   9.5000   C.3       1 RES1  23.8442
   222 23.84   -2.5000  30.5000   9.5000   C.3       1 RES1  23.8442
   223 23.84   -2.0000  30.5000   9.5000   C.3       1 RES1  23.8442
   224 26.50   -3.5000  30.0000  10.5000   C.3       1 RES1  26.5012
   225 26.50   -3.5000  30.0000  11.0000   C.3       1 RES1  26.5012
   226 26.50   -3.5000  30.0000  11.5000   C.3       1 RES1  26.5012
   227 26.50   -3.5000  30.5000  10.5000   C.3       1 RES1  26.5012
   228 26.50   -3.5000  30.5000  11.0000   C.3       1 RES1  26.5012
   229 26.50   -3.5000  30.5000  11.5000   C.3       1 RES1  26.5012
   230 26.50   -3.5000  31.0000  10.5000   C.3       1 RES1  26.5012
   231 26.50   -3.5000  31.0000  11.0000   C.3       1 RES1  26.5012
   232 26.50   -3.5000  31.0000  11.5000   C.3       1 RES1  26.5012
   233 47.12    3.5000  27.5000  10.0000   C.3       1 RES1  47.1238
   234 47.12    3.5000  27.5000  10.5000   C.3       1 RES1  47.1238
   235 47.12    3.5000  27.5000  11.0000   C.3       1 RES1  47.1238
   236 23.57   -2.5000  27.5000   9.0000   C.3       1 RES1  23.5742
   237 25.73   -5.0000  29.5000  10.5000   C.3       1 RES1  25.7258
   238 25.73   -4.5000  29.5000  10.5000   C.3       1 RES1  25.7258
   239 25.73   -4.0000  29.5000  10.5000   C.3       1 RES1  25.7258
   240 23.67   -1.5000  28.0000   8.5000   C.3       1 RES1  23.6729
   241 23.67   -1.5000  28.5000   8.5000   C.3       1 RES1  23.6729
   242 23.67   -1.5000  29.0000   8.5000   C.3       1 RES1  23.6729
   243 23.67   -1.0000  28.0000   8.5000   C.3       1 RES1  23.6729
   244 23.67   -1.0000  28.5000   8.5000   C.3       1 RES1  23.6729
   245 23.67   -0.5000  28.5000   8.5000   C.3       1 RES1  23.6729
   246 29.16   -0.5000  30.5000   7.5000   C.3       1 RES1  29.1630
   247 29.16   -0.5000  30.5000   8.0000   C.3       1 RES1  29.1630
   248 29.16   -0.5000  30.5000   8.5000   C.3       1 RES1  29.1630
   249 25.63   -3.0000  28.5000   9.0000   C.3       1 RES1  25.6288
   250 25.63   -3.0000  29.0000   9.0000   C.3       1 RES1  25.6288
   251 25.63   -3.0000  29.5000   9.0000   C.3       1 RES1  25.6288
   252 25.63   -3.0000  29.5000   9.5000   C.3       1 RES1  25.6288
   253 25.63   -3.0000  29.5000  10.0000   C.3       1 RES1  25.6288
   254 25.63   -2.5000  28.5000   9.0000   C.3       1 RES1  25.6288
   255 25.63   -2.5000  29.0000   9.0000   C.3       1 RES1  25.6288
   256 25.63   -2.5000  29.5000   9.0000   C.3       1 RES1  25.6288
   257 25.63   -2.5000  29.5000   9.5000   C.3       1 RES1  25.6288
   258 25.63   -2.5000  29.5000  10.0000   C.3       1 RES1  25.6288
   259 25.63   -2.0000  28.5000   9.0000   C.3       1 RES1  25.6288
   260 25.63   -2.0000  29.0000   9.0000   C.3       1 RES1  25.6288
   261 25.63   -2.0000  29.5000   9.0000   C.3       1 RES1  25.6288
   262 25.63   -2.0000  29.5000   9.5000   C.3       1 RES1  25.6288
   263 25.63   -2.0000  29.5000  10.0000   C.3       1 RES1  25.6288
   264 24.22   -2.0000  30.0000   9.5000   C.3       1 RES1  24.2204
   265 24.14   -3.0000  29.0000  11.0000   C.3       1 RES1  24.1447
   266 24.14   -3.0000  29.0000  11.5000   C.3       1 RES1  24.1447
   267 24.14   -3.0000  29.0000  12.0000   C.3       1 RES1  24.1447
   268 24.14   -2.5000  29.0000  11.0000   C.3       1 RES1  24.1447
   269 24.14   -2.5000  29.0000  11.5000   C.3       1 RES1  24.1447
   270 24.14   -2.5000  29.0000  12.0000   C.3       1 RES1  24.1447
   271 24.14   -2.0000  29.0000  11.0000   C.3       1 RES1  24.1447
   272 24.14   -2.0000  29.0000  11.5000   C.3       1 RES1  24.1447
   273 25.56   -2.0000  31.5000   8.0000   C.3       1 RES1  25.5574
   274 25.56   -2.0000  31.5000   8.5000   C.3       1 RES1  25.5574
   275 25.56   -2.0000  31.5000   9.0000   C.3       1 RES1  25.5574
   276 25.56   -2.0000  32.0000   8.0000   C.3       1 RES1  25.5574
   277 25.56   -2.0000  32.0000   8.5000   C.3       1 RES1  25.5574
   278 25.56   -2.0000  32.0000   9.0000   C.3       1 RES1  25.5574
   279 25.56   -2.0000  32.5000   8.0000   C.3       1 RES1  25.5574
   280 25.56   -2.0000  32.5000   8.5000   C.3       1 RES1  25.5574
   281 25.56   -2.0000  32.5000   9.0000   C.3       1 RES1  25.5574
   282 24.82   -2.0000  31.5000   7.5000   C.3       1 RES1  24.8222
   283 24.82   -2.0000  32.0000   7.5000   C.3       1 RES1  24.8222
   284 24.82   -2.0000  32.5000   7.5000   C.3       1 RES1  24.8222
   285 24.29    4.0000  26.0000   7.0000   C.3       1 RES1  24.2874
   286 23.71   -5.0000  29.0000  11.5000   C.3       1 RES1  23.7054
   287 23.71   -4.5000  29.0000  11.5000   C.3       1 RES1  23.7054
   288 23.99   -4.5000  30.0000  11.5000   C.3       1 RES1  23.9871
   289 23.99   -4.5000  30.5000  10.5000   C.3       1 RES1  23.9871
   290 23.99   -4.5000  30.5000  11.0000   C.3       1 RES1  23.9871
   291 23.99   -4.5000  30.5000  11.5000   C.3       1 RES1  23.9871
   292 23.99   -4.5000  31.0000  10.5000   C.3       1 RES1  23.9871
   293 23.99   -4.5000  31.0000  11.0000   C.3       1 RES1  23.9871
   294 23.99   -4.5000  31.0000  11.5000   C.3       1 RES1  23.9871
   295 26.13   -1.0000  29.5000   7.5000   C.3       1 RES1  26.1332
   296 26.13   -1.0000  29.5000   8.0000   C.3       1 RES1  26.1332
   297 26.13   -1.0000  29.5000   8.5000   C.3       1 RES1  26.1332
   298 26.13   -1.0000  30.0000   7.5000   C.3       1 RES1  26.1332
   299 26.13   -1.0000  30.0000   8.0000   C.3       1 RES1  26.1332
   300 26.13   -1.0000  30.0000   8.5000   C.3       1 RES1  26.1332
   301 26.13   -1.0000  30.5000   7.5000   C.3       1 RES1  26.1332
   302 24.71   -1.5000  27.0000   9.0000   C.3       1 RES1  24.7146
   303 24.71   -1.5000  27.5000   9.0000   C.3       1 RES1  24.7146
   304 24.71   -1.0000  27.0000   9.0000   C.3       1 RES1  24.7146
   305 24.71   -1.0000  27.5000   9.0000   C.3       1 RES1  24.7146
   306 24.71   -1.0000  28.0000   9.0000   C.3       1 RES1  24.7146
   307 24.71   -1.0000  28.0000   9.5000   C.3       1 RES1  24.7146
   308 24.71   -1.0000  28.0000  10.0000   C.3       1 RES1  24.7146
   309 24.71   -0.5000  27.0000   9.0000   C.3       1 RES1  24.7146
   310 24.71   -0.5000  27.5000   9.0000   C.3       1 RES1  24.7146
   311 24.71   -0.5000  28.0000   9.0000   C.3       1 RES1  24.7146
   312 24.71   -0.5000  28.0000   9.5000   C.3       1 RES1  24.7146
   313 24.71   -0.5000  28.0000  10.0000   C.3       1 RES1  24.7146
   314 26.84   -3.0000  30.0000  10.5000   C.3       1 RES1  26.8387
   315 26.84   -3.0000  30.0000  11.0000   C.3       1 RES1  26.8387
   316 26.84   -3.0000  30.0000  11.5000   C.3       1 RES1  26.8387
   317 26.84   -3.0000  30.5000  10.5000   C.3       1 RES1  26.8387
   318 26.84   -3.0000  30.5000  11.0000   C.3       1 RES1  26.8387
   319 26.84   -3.0000  30.5000  11.5000   C.3       1 RES1  26.8387
   320 26.84   -3.0000  31.0000  10.5000   C.3       1 RES1  26.8387
   321 26.84   -3.0000  31.0000  11.0000   C.3       1 RES1  26.8387
   322 26.84   -3.0000  31.0000  11.5000   C.3       1 RES1  26.8387
   323 23.60    3.0000  28.5000   8.5000   C.3       1 RES1  23.5997
   324 26.02    0.0000  30.0000  12.5000   C.3       1 RES1  26.0225
   325 26.02    0.5000  30.0000  12.5000   C.3       1 RES1  26.0225
   326 26.02    1.0000  30.0000  12.5000   C.3       1 RES1  26.0225
   327 24.07   -1.5000  29.0000  11.0000   C.3       1 RES1  24.0654
   328 24.07   -1.5000  29.0000  11.5000   C.3       1 RES1  24.0654
   329 24.76   -2.0000  26.0000  10.0000   C.3       1 RES1  24.7556
   330 24.76   -2.0000  26.0000  10.5000   C.3       1 RES1  24.7556
   331 24.76   -2.0000  26.0000  11.0000   C.3       1 RES1  24.7556
   332 24.76   -1.5000  26.0000  11.0000   C.3       1 RES1  24.7556
   333 24.76   -1.0000  26.0000  11.0000   C.3       1 RES1  24.7556
   334 26.43   -3.0000  32.0000  10.0000   C.3       1 RES1  26.4273
   335 26.43   -3.0000  32.0000  10.5000   C.3       1 RES1  26.4273
   336 26.43   -3.0000  32.5000  10.0000   C.3       1 RES1  26.4273
   337 26.43   -3.0000  32.5000  10.5000   C.3       1 RES1  26.4273
   338 26.43   -3.0000  33.0000  10.0000   C.3       1 RES1  26.4273
   339 26.43   -3.0000  33.0000  10.5000   C.3       1 RES1  26.4273
   340 26.43   -2.5000  32.0000  10.0000   C.3       1 RES1  26.4273
   341 26.43   -2.5000  32.0000  10.5000   C.3       1 RES1  26.4273
   342 26.43   -2.5000  32.5000  10.0000   C.3       1 RES1  26.4273
   343 26.43   -2.5000  32.5000  10.5000   C.3       1 RES1  26.4273
   344 26.43   -2.5000  33.0000  10.0000   C.3       1 RES1  26.4273
   345 26.43   -2.5000  33.0000  10.5000   C.3       1 RES1  26.4273
   346 26.43   -2.0000  32.0000  10.0000   C.3       1 RES1  26.4273
   347 26.43   -2.0000  32.0000  10.5000   C.3       1 RES1  26.4273
   348 26.43   -2.0000  32.5000  10.0000   C.3       1 RES1  26.4273
   349 26.43   -2.0000  32.5000  10.5000   C.3       1 RES1  26.4273
   350 26.43   -2.0000  33.0000  10.0000   C.3       1 RES1  26.4273
   351 26.43   -2.0000  33.0000  10.5000   C.3       1 RES1  26.4273
   352 27.10   -2.5000  30.0000  10.5000   C.3       1 RES1  27.0950
   353 27.10   -2.5000  30.0000  11.0000   C.3       1 RES1  27.0950
   354 27.10   -2.5000  30.0000  11.5000   C.3       1 RES1  27.0950
   355 27.10   -2.5000  30.5000  10.5000   C.3       1 RES1  27.0950
   356 27.10   -2.5000  30.5000  11.0000   C.3       1 RES1  27.0950
   357 27.10   -2.5000  30.5000  11.5000   C.3       1 RES1  27.0950
   358 27.10   -2.5000  31.0000  10.5000   C.3       1 RES1  27.0950
   359 27.10   -2.5000  31.0000  11.0000   C.3       1 RES1  27.0950
   360 27.10   -2.5000  31.0000  11.5000   C.3       1 RES1  27.0950
   361 27.10   -2.0000  30.0000  10.5000   C.3       1 RES1  27.0950
   362 27.10   -2.0000  30.0000  11.0000   C.3       1 RES1  27.0950
   363 27.10   -2.0000  30.0000  11.5000   C.3       1 RES1  27.0950
   364 27.10   -2.0000  30.5000  10.5000   C.3       1 RES1  27.0950
   365 27.10   -2.0000  30.5000  11.0000   C.3       1 RES1  27.0950
   366 27.10   -2.0000  30.5000  11.5000   C.3       1 RES1  27.0950
   367 27.10   -2.0000  31.0000  10.5000   C.3       1 RES1  27.0950
   368 27.10   -2.0000  31.0000  11.0000   C.3       1 RES1  27.0950
   369 27.10   -2.0000  31.0000  11.5000   C.3       1 RES1  27.0950
   370 27.10   -1.5000  30.0000  10.5000   C.3       1 RES1  27.0950
   371 27.10   -1.5000  30.0000  11.0000   C.3       1 RES1  27.0950
   372 27.10   -1.5000  30.0000  11.5000   C.3       1 RES1  27.0950
   373 27.10   -1.5000  30.5000  10.5000   C.3       1 RES1  27.0950
   374 27.10   -1.5000  30.5000  11.0000   C.3       1 RES1  27.0950
   375 27.10   -1.5000  30.5000  11.5000   C.3       1 RES1  27.0950
   376 27.10   -1.5000  31.0000  10.5000   C.3       1 RES1  27.0950
   377 27.10   -1.5000  31.0000  11.0000   C.3       1 RES1  27.0950
   378 27.10   -1.5000  31.0000  11.5000   C.3       1 RES1  27.0950
   379 28.85    0.0000  32.5000   6.5000   C.3       1 RES1  28.8525
   380 23.98   -1.0000  31.0000   7.0000   C.3       1 RES1  23.9813
   381 25.31    2.0000  28.5000   7.0000   C.3       1 RES1  25.3070
   382 25.31    2.0000  28.5000   7.5000   C.3       1 RES1  25.3070
   383 25.31    2.0000  28.5000   8.0000   C.3       1 RES1  25.3070
   384 25.31    2.5000  28.5000   7.5000   C.3       1 RES1  25.3070
   385 25.31    2.5000  28.5000   8.0000   C.3       1 RES1  25.3070
   386 25.31    3.0000  28.5000   7.5000   C.3       1 RES1  25.3070
   387 25.31    3.0000  28.5000   8.0000   C.3       1 RES1  25.3070
   388 25.09   -2.5000  26.5000  12.5000   C.3       1 RES1  25.0938
   389 25.09   -2.5000  26.5000  13.0000   C.3       1 RES1  25.0938
   390 25.09   -2.5000  26.5000  13.5000   C.3       1 RES1  25.0938
   391 25.09   -2.5000  27.0000  12.5000   C.3       1 RES1  25.0938
   392 25.09   -2.5000  27.0000  13.0000   C.3       1 RES1  25.0938
   393 25.09   -2.5000  27.0000  13.5000   C.3       1 RES1  25.0938
   394 25.09   -2.5000  27.5000  12.5000   C.3       1 RES1  25.0938
   395 25.09   -2.5000  27.5000  13.0000   C.3       1 RES1  25.0938
   396 25.09   -2.5000  27.5000  13.5000   C.3       1 RES1  25.0938
   397 25.09   -2.0000  26.5000  12.5000   C.3       1 RES1  25.0938
   398 25.09   -2.0000  26.5000  13.0000   C.3       1 RES1  25.0938
   399 25.09   -2.0000  26.5000  13.5000   C.3       1 RES1  25.0938
   400 25.09   -2.0000  27.0000  12.5000   C.3       1 RES1  25.0938
   401 25.09   -2.0000  27.0000  13.0000   C.3       1 RES1  25.0938
   402 25.09   -2.0000  27.0000  13.5000   C.3       1 RES1  25.0938
   403 25.09   -2.0000  27.5000  12.5000   C.3       1 RES1  25.0938
   404 25.09   -2.0000  27.5000  13.0000   C.3       1 RES1  25.0938
   405 25.09   -2.0000  27.5000  13.5000   C.3       1 RES1  25.0938
   406 25.09   -1.5000  26.5000  12.5000   C.3       1 RES1  25.0938
   407 25.09   -1.5000  26.5000  13.0000   C.3       1 RES1  25.0938
   408 25.09   -1.5000  26.5000  13.5000   C.3       1 RES1  25.0938
   409 25.09   -1.5000  27.0000  12.5000   C.3       1 RES1  25.0938
   410 25.09   -1.5000  27.0000  13.0000   C.3       1 RES1  25.0938
   411 25.09   -1.5000  27.0000  13.5000   C.3       1 RES1  25.0938
   412 25.09   -1.5000  27.5000  12.5000   C.3       1 RES1  25.0938
   413 25.09   -1.5000  27.5000  13.0000   C.3       1 RES1  25.0938
   414 25.09   -1.5000  27.5000  13.5000   C.3       1 RES1  25.0938
   415 25.16   -1.5000  28.0000   9.0000   C.3       1 RES1  25.1640
   416 25.16   -1.5000  28.0000   9.5000   C.3       1 RES1  25.1640
   417 25.16   -1.5000  28.0000  10.0000   C.3       1 RES1  25.1640
   418 25.16   -1.5000  28.5000   9.0000   C.3       1 RES1  25.1640
   419 25.16   -1.5000  28.5000   9.5000   C.3       1 RES1  25.1640
   420 25.16   -1.5000  28.5000  10.0000   C.3       1 RES1  25.1640
   421 25.16   -1.5000  29.0000   9.0000   C.3       1 RES1  25.1640
   422 25.16   -1.5000  29.0000   9.5000   C.3       1 RES1  25.1640
   423 25.16   -1.5000  29.0000  10.0000   C.3       1 RES1  25.1640
   424 25.35   -1.5000  32.0000  10.0000   C.3       1 RES1  25.3488
   425 25.35   -1.5000  32.0000  10.5000   C.3       1 RES1  25.3488
   426 25.35   -1.5000  32.0000  11.0000   C.3       1 RES1  25.3488
   427 25.35   -1.5000  32.5000  10.0000   C.3       1 RES1  25.3488
   428 25.35   -1.5000  32.5000  10.5000   C.3       1 RES1  25.3488
   429 25.35   -1.5000  32.5000  11.0000   C.3       1 RES1  25.3488
   430 25.35   -1.5000  33.0000  10.0000   C.3       1 RES1  25.3488
   431 25.35   -1.5000  33.0000  10.5000   C.3       1 RES1  25.3488
   432 25.35   -1.5000  33.0000  11.0000   C.3       1 RES1  25.3488
   433 23.82   -3.0000  29.0000   8.0000   C.3       1 RES1  23.8209
   434 23.82   -2.5000  29.0000   8.0000   C.3       1 RES1  23.8209
   435 23.82   -2.0000  29.0000   8.0000   C.3       1 RES1  23.8209
   436 23.82   -2.0000  29.0000   8.5000   C.3       1 RES1  23.8209
   437 24.45    4.0000  28.0000   8.5000   C.3       1 RES1  24.4471
   438 24.76   -5.5000  28.0000  11.5000   C.3       1 RES1  24.7592
   439 24.76   -5.0000  28.0000  11.5000   C.3       1 RES1  24.7592
   440 24.76   -4.5000  28.0000  11.5000   C.3       1 RES1  24.7592
   441 24.23    1.0000  28.5000   7.5000   C.3       1 RES1  24.2288
   442 24.23    1.0000  28.5000   8.0000   C.3       1 RES1  24.2288
   443 24.23    1.0000  28.5000   8.5000   C.3       1 RES1  24.2288
   444 24.23    1.5000  28.5000   8.5000   C.3       1 RES1  24.2288
   445 24.23    2.0000  28.5000   8.5000   C.3       1 RES1  24.2288
   446 24.63    3.5000  25.0000   8.5000   C.3       1 RES1  24.6344
   447 24.63    3.5000  25.0000   9.0000   C.3       1 RES1  24.6344
   448 24.63    3.5000  25.0000   9.5000   C.3       1 RES1  24.6344
   449 24.63    3.5000  25.5000   8.5000   C.3       1 RES1  24.6344
   450 24.63    3.5000  25.5000   9.0000   C.3       1 RES1  24.6344
   451 24.63    3.5000  25.5000   9.5000   C.3       1 RES1  24.6344
   452 24.63    3.5000  26.0000   9.0000   C.3       1 RES1  24.6344
   453 24.63    3.5000  26.0000   9.5000   C.3       1 RES1  24.6344
   454 25.18   -1.0000  29.5000  11.5000   C.3       1 RES1  25.1842
   455 23.96    4.0000  26.5000   6.5000   C.3       1 RES1  23.9587
   456 23.96    4.0000  27.0000   6.5000   C.3       1 RES1  23.9587
   457 23.96    4.0000  27.5000   6.5000   C.3       1 RES1  23.9587
   458 24.00    3.5000  28.0000   9.0000   C.3       1 RES1  23.9968
   459 24.41    1.5000  26.0000   8.5000   C.3       1 RES1  24.4117
   460 24.41    1.5000  26.0000   9.0000   C.3       1 RES1  24.4117
   461 24.41    1.5000  26.0000   9.5000   C.3       1 RES1  24.4117
   462 23.70   -0.5000  26.0000  11.0000   C.3       1 RES1  23.6958
   463 23.70   -0.5000  26.5000  11.0000   C.3       1 RES1  23.6958
   464 23.70   -0.5000  27.0000  11.0000   C.3       1 RES1  23.6958
   465 23.98   -1.5000  30.0000   8.0000   C.3       1 RES1  23.9830
   466 23.98   -1.5000  30.0000   8.5000   C.3       1 RES1  23.9830
   467 23.98   -1.5000  30.0000   9.0000   C.3       1 RES1  23.9830
   468 23.98   -1.5000  30.5000   8.0000   C.3       1 RES1  23.9830
   469 23.98   -1.5000  30.5000   8.5000   C.3       1 RES1  23.9830
   470 23.98   -1.5000  30.5000   9.0000   C.3       1 RES1  23.9830
   471 23.72    2.5000  24.5000   8.0000   C.3       1 RES1  23.7155
   472 23.72    3.0000  24.5000   8.0000   C.3       1 RES1  23.7155
   473 23.72    3.5000  24.5000   8.0000   C.3       1 RES1  23.7155
   474 24.18   -1.0000  28.5000  10.5000   C.3       1 RES1  24.1834
   475 25.42   -5.0000  30.0000   8.5000   C.3       1 RES1  25.4171
   476 25.42   -5.0000  30.0000   9.0000   C.3       1 RES1  25.4171
   477 25.42   -5.0000  30.0000   9.5000   C.3       1 RES1  25.4171
   478 25.42   -4.5000  30.0000   8.5000   C.3       1 RES1  25.4171
   479 25.42   -4.5000  30.0000   9.0000   C.3       1 RES1  25.4171
   480 25.42   -4.5000  30.0000   9.5000   C.3       1 RES1  25.4171
   481 25.42   -4.0000  30.0000   8.5000   C.3       1 RES1  25.4171
   482 25.42   -4.0000  30.0000   9.0000   C.3       1 RES1  25.4171
   483 25.42   -4.0000  30.0000   9.5000   C.3       1 RES1  25.4171
   484 25.22   -2.5000  29.5000  10.5000   C.3       1 RES1  25.2175
   485 25.22   -2.0000  29.5000  10.5000   C.3       1 RES1  25.2175
   486 25.22   -1.5000  29.5000  11.5000   C.3       1 RES1  25.2175
   487 24.86   -5.0000  28.0000   8.5000   C.3       1 RES1  24.8637
   488 24.86   -4.5000  28.0000   8.5000   C.3       1 RES1  24.8637
   489 24.86   -4.0000  28.0000   8.5000   C.3       1 RES1  24.8637
   490 25.20    1.5000  24.5000   8.5000   C.3       1 RES1  25.2038
   491 25.20    1.5000  24.5000   9.0000   C.3       1 RES1  25.2038
   492 25.20    1.5000  24.5000   9.5000   C.3       1 RES1  25.2038
   493 25.20    1.5000  25.0000   8.5000   C.3       1 RES1  25.2038
   494 25.20    1.5000  25.0000   9.0000   C.3       1 RES1  25.2038
   495 25.20    1.5000  25.0000   9.5000   C.3       1 RES1  25.2038
   496 25.20    1.5000  25.5000   8.5000   C.3       1 RES1  25.2038
   497 25.20    1.5000  25.5000   9.0000   C.3       1 RES1  25.2038
   498 25.20    1.5000  25.5000   9.5000   C.3       1 RES1  25.2038
   499 23.98    4.0000  28.5000   7.5000   C.3       1 RES1  23.9757
   500 23.98    4.0000  28.5000   8.0000   C.3       1 RES1  23.9757
   501 23.98    4.0000  28.5000   8.5000   C.3       1 RES1  23.9757
   502 23.98    4.0000  29.0000   7.5000   C.3       1 RES1  23.9757
   503 23.98    4.0000  29.0000   8.0000   C.3       1 RES1  23.9757
   504 23.98    4.0000  29.0000   8.5000   C.3       1 RES1  23.9757
   505 23.98    4.0000  29.5000   7.5000   C.3       1 RES1  23.9757
   506 23.98    4.0000  29.5000   8.0000   C.3       1 RES1  23.9757
   507 23.98    4.0000  29.5000   8.5000   C.3       1 RES1  23.9757
   508 23.98    4.5000  28.5000   7.5000   C.3       1 RES1  23.9757
   509 23.98    4.5000  28.5000   8.0000   C.3       1 RES1  23.9757
   510 23.98    4.5000  28.5000   8.5000   C.3       1 RES1  23.9757
   511 23.98    4.5000  29.0000   7.5000   C.3       1 RES1  23.9757
   512 23.98    4.5000  29.0000   8.0000   C.3       1 RES1  23.9757
   513 23.98    4.5000  29.0000   8.5000   C.3       1 RES1  23.9757
   514 23.98    4.5000  29.5000   7.5000   C.3       1 RES1  23.9757
   515 23.98    4.5000  29.5000   8.0000   C.3       1 RES1  23.9757
   516 23.98    4.5000  29.5000   8.5000   C.3       1 RES1  23.9757
   517 23.98    5.0000  28.5000   7.5000   C.3       1 RES1  23.9757
   518 23.98    5.0000  28.5000   8.0000   C.3       1 RES1  23.9757
   519 23.98    5.0000  28.5000   8.5000   C.3       1 RES1  23.9757
   520 23.98    5.0000  29.0000   7.5000   C.3       1 RES1  23.9757
   521 23.98    5.0000  29.0000   8.0000   C.3       1 RES1  23.9757
   522 23.98    5.0000  29.0000   8.5000   C.3       1 RES1  23.9757
   523 23.98    5.0000  29.5000   7.5000   C.3       1 RES1  23.9757
   524 23.98    5.0000  29.5000   8.0000   C.3       1 RES1  23.9757
   525 23.98    5.0000  29.5000   8.5000   C.3       1 RES1  23.9757
   526 24.45   -3.0000  31.0000  12.0000   C.3       1 RES1  24.4468
   527 24.45   -2.5000  31.0000  12.0000   C.3       1 RES1  24.4468
   528 24.45   -2.0000  31.0000  12.0000   C.3       1 RES1  24.4468
   529 24.53   -4.0000  27.0000  11.5000   C.3       1 RES1  24.5286
   530 24.53   -4.0000  27.0000  12.0000   C.3       1 RES1  24.5286
   531 24.53   -4.0000  27.0000  12.5000   C.3       1 RES1  24.5286
   532 24.53   -4.0000  27.5000  11.5000   C.3       1 RES1  24.5286
   533 24.53   -4.0000  27.5000  12.0000   C.3       1 RES1  24.5286
   534 24.53   -4.0000  27.5000  12.5000   C.3       1 RES1  24.5286
   535 24.53   -4.0000  28.0000  11.5000   C.3       1 RES1  24.5286
   536 24.53   -4.0000  28.0000  12.0000   C.3       1 RES1  24.5286
   537 24.53   -4.0000  28.0000  12.5000   C.3       1 RES1  24.5286
   538 25.27   -2.5000  28.0000   9.0000   C.3       1 RES1  25.2699
   539 25.27   -2.0000  28.0000   9.0000   C.3       1 RES1  25.2699
   540 26.47    1.5000  26.5000   7.5000   C.3       1 RES1  26.4690
   541 26.47    1.5000  26.5000   8.0000   C.3       1 RES1  26.4690
   542 26.47    1.5000  26.5000   8.5000   C.3       1 RES1  26.4690
   543 24.34   -3.5000  29.5000  12.0000   C.3       1 RES1  24.3363
   544 24.34   -3.5000  30.0000  12.0000   C.3       1 RES1  24.3363
   545 24.34   -3.5000  30.5000  12.0000   C.3       1 RES1  24.3363
   546 29.14   -0.5000  31.5000   7.0000   C.3       1 RES1  29.1381
   547 29.14   -0.5000  32.0000   7.0000   C.3       1 RES1  29.1381
   548 29.14   -0.5000  32.5000   7.0000   C.3       1 RES1  29.1381
   549 29.14   -0.5000  32.5000   7.5000   C.3       1 RES1  29.1381
   550 29.14   -0.5000  32.5000   8.0000   C.3       1 RES1  29.1381
   551 24.97   -5.0000  30.0000  10.0000   C.3       1 RES1  24.9733
   552 24.97   -5.0000  30.0000  10.5000   C.3       1 RES1  24.9733
   553 24.97   -5.0000  30.0000  11.0000   C.3       1 RES1  24.9733
   554 24.97   -4.5000  30.0000  10.0000   C.3       1 RES1  24.9733
   555 24.97   -4.5000  30.0000  10.5000   C.3       1 RES1  24.9733
   556 24.97   -4.5000  30.0000  11.0000   C.3       1 RES1  24.9733
   557 24.97   -4.0000  30.0000  10.0000   C.3       1 RES1  24.9733
   558 24.97   -4.0000  30.0000  10.5000   C.3       1 RES1  24.9733
   559 24.97   -4.0000  30.0000  11.0000   C.3       1 RES1  24.9733
   560 27.06   -1.0000  31.0000   7.5000   C.3       1 RES1  27.0580
   561 27.06   -1.0000  31.0000   8.0000   C.3       1 RES1  27.0580
   562 27.06   -1.0000  31.0000   8.5000   C.3       1 RES1  27.0580
   563 26.49    0.0000  30.0000   6.5000   C.3       1 RES1  26.4931
   564 26.87   -5.0000  28.5000   8.5000   C.3       1 RES1  26.8700
   565 26.87   -5.0000  29.0000   8.5000   C.3       1 RES1  26.8700
   566 26.87   -5.0000  29.5000   8.5000   C.3       1 RES1  26.8700
   567 26.87   -4.5000  28.5000   8.5000   C.3       1 RES1  26.8700
   568 26.87   -4.5000  29.0000   8.5000   C.3       1 RES1  26.8700
   569 26.87   -4.5000  29.5000   8.5000   C.3       1 RES1  26.8700
   570 26.87   -4.0000  28.5000   8.5000   C.3       1 RES1  26.8700
   571 26.87   -4.0000  29.0000   8.5000   C.3       1 RES1  26.8700
   572 26.87   -4.0000  29.5000   8.5000   C.3       1 RES1  26.8700
   573 25.51   -3.0000  31.5000  10.0000   C.3       1 RES1  25.5078
   574 25.51   -3.0000  31.5000  10.5000   C.3       1 RES1  25.5078
   575 25.51   -3.0000  31.5000  11.0000   C.3       1 RES1  25.5078
   576 25.51   -2.5000  31.5000  10.0000   C.3       1 RES1  25.5078
   577 25.51   -2.5000  31.5000  10.5000   C.3       1 RES1  25.5078
   578 25.51   -2.5000  31.5000  11.0000   C.3       1 RES1  25.5078
   579 25.51   -2.0000  31.5000  10.0000   C.3       1 RES1  25.5078
   580 25.51   -2.0000  31.5000  10.5000   C.3       1 RES1  25.5078
   581 25.51   -2.0000  31.5000  11.0000   C.3       1 RES1  25.5078
   582 24.31   -1.0000  28.5000  11.0000   C.3       1 RES1  24.3088
   583 24.31   -1.0000  28.5000  11.5000   C.3       1 RES1  24.3088
   584 27.40    2.0000  28.0000   8.5000   C.3       1 RES1  27.4013
   585 27.40    2.5000  28.0000   8.5000   C.3       1 RES1  27.4013
   586 27.40    3.0000  28.0000   8.5000   C.3       1 RES1  27.4013
   587 29.20    1.0000  31.5000   8.5000   C.3       1 RES1  29.1976
   588 23.74    0.0000  29.0000   9.5000   C.3       1 RES1  23.7407
   589 23.80    0.5000  29.0000  10.0000   C.3       1 RES1  23.7993
   590 23.80    0.5000  29.5000  10.0000   C.3       1 RES1  23.7993
   591 23.80    0.5000  30.0000  10.0000   C.3       1 RES1  23.7993
   592 29.07   -0.5000  30.0000   7.5000   C.3       1 RES1  29.0722
   593 29.07   -0.5000  30.0000   8.0000   C.3       1 RES1  29.0722
   594 29.07   -0.5000  30.0000   8.5000   C.3       1 RES1  29.0722
   595 25.74    4.0000  28.0000   7.0000   C.3       1 RES1  25.7403
   596 25.74    4.0000  28.0000   7.5000   C.3       1 RES1  25.7403
   597 25.74    4.0000  28.0000   8.0000   C.3       1 RES1  25.7403
   598 24.64    0.5000  29.5000   6.5000   C.3       1 RES1  24.6418
   599 24.64    1.0000  29.5000   6.5000   C.3       1 RES1  24.6418
   600 24.64    1.5000  29.5000   6.5000   C.3       1 RES1  24.6418
   601 24.81   -3.0000  31.5000  11.5000   C.3       1 RES1  24.8094
   602 24.81   -2.5000  31.5000  11.5000   C.3       1 RES1  24.8094
   603 24.81   -2.0000  31.5000  11.5000   C.3       1 RES1  24.8094
   604 25.99   -0.5000  29.0000   7.5000   C.3       1 RES1  25.9948
   605 25.99   -0.5000  29.0000   8.0000   C.3       1 RES1  25.9948
   606 25.99   -0.5000  29.0000   8.5000   C.3       1 RES1  25.9948
   607 23.57    0.0000  33.0000   9.5000   C.3       1 RES1  23.5664
   608 27.28   -1.5000  31.5000   8.0000   C.3       1 RES1  27.2832
   609 27.28   -1.5000  31.5000   8.5000   C.3       1 RES1  27.2832
   610 27.28   -1.5000  31.5000   9.0000   C.3       1 RES1  27.2832
   611 27.28   -1.5000  32.0000   8.0000   C.3       1 RES1  27.2832
   612 27.28   -1.5000  32.0000   8.5000   C.3       1 RES1  27.2832
   613 27.28   -1.5000  32.0000   9.0000   C.3       1 RES1  27.2832
   614 27.28   -1.5000  32.5000   8.0000   C.3       1 RES1  27.2832
   615 27.28   -1.5000  32.5000   8.5000   C.3       1 RES1  27.2832
   616 27.28   -1.5000  32.5000   9.0000   C.3       1 RES1  27.2832
   617 27.28   -1.0000  31.5000   9.0000   C.3       1 RES1  27.2832
   618 27.28   -1.0000  32.0000   9.0000   C.3       1 RES1  27.2832
   619 27.28   -1.0000  32.5000   9.0000   C.3       1 RES1  27.2832
   620 27.28   -0.5000  31.5000   9.0000   C.3       1 RES1  27.2832
   621 27.28   -0.5000  32.0000   9.0000   C.3       1 RES1  27.2832
   622 27.28   -0.5000  32.5000   9.0000   C.3       1 RES1  27.2832
   623 24.39   -2.5000  27.5000   9.5000   C.3       1 RES1  24.3920
   624 24.39   -2.5000  27.5000  10.0000   C.3       1 RES1  24.3920
   625 24.39   -2.5000  27.5000  10.5000   C.3       1 RES1  24.3920
   626 25.63    0.0000  31.0000   6.0000   C.3       1 RES1  25.6324
   627 25.63    0.0000  31.5000   6.0000   C.3       1 RES1  25.6324
   628 25.63    0.0000  32.0000   6.0000   C.3       1 RES1  25.6324
   629 23.71   -1.5000  29.5000   7.5000   C.3       1 RES1  23.7124
   630 23.71   -1.5000  30.0000   7.5000   C.3       1 RES1  23.7124
   631 24.07   -3.5000  30.0000  10.0000   C.3       1 RES1  24.0738
   632 24.07   -3.5000  30.5000  10.0000   C.3       1 RES1  24.0738
   633 24.07   -3.5000  31.0000  10.0000   C.3       1 RES1  24.0738
   634 24.09   -3.5000  30.5000   9.0000   C.3       1 RES1  24.0898
   635 28.11    0.0000  29.5000   7.0000   C.3       1 RES1  28.1090
   636 28.11    0.5000  29.5000   7.0000   C.3       1 RES1  28.1090
   637 28.11    1.0000  29.5000   7.0000   C.3       1 RES1  28.1090
   638 23.68   -2.5000  27.0000  10.0000   C.3       1 RES1  23.6798
   639 23.68   -2.5000  27.0000  10.5000   C.3       1 RES1  23.6798
   640 23.68   -2.5000  27.0000  11.0000   C.3       1 RES1  23.6798
   641 23.68   -2.5000  27.5000  11.0000   C.3       1 RES1  23.6798
   642 23.68   -2.0000  28.0000  11.0000   C.3       1 RES1  23.6798
   643 23.68   -1.5000  28.0000  11.0000   C.3       1 RES1  23.6798
   644 25.41   -5.5000  28.0000   9.0000   C.3       1 RES1  25.4127
   645 25.41   -5.5000  28.5000   9.0000   C.3       1 RES1  25.4127
   646 25.41   -5.5000  29.0000   9.0000   C.3       1 RES1  25.4127
   647 23.93   -2.5000  30.5000   7.5000   C.3       1 RES1  23.9279
   648 23.93   -2.5000  31.0000   7.5000   C.3       1 RES1  23.9279
   649 23.93   -2.5000  31.5000   7.5000   C.3       1 RES1  23.9279
   650 23.93   -2.0000  30.5000   7.5000   C.3       1 RES1  23.9279
   651 23.93   -2.0000  31.0000   7.5000   C.3       1 RES1  23.9279
   652 23.93   -1.5000  30.5000   7.5000   C.3       1 RES1  23.9279
   653 24.19   -2.0000  31.0000   9.5000   C.3       1 RES1  24.1942
   654 24.19   -2.0000  31.5000   9.5000   C.3       1 RES1  24.1942
   655 24.19   -2.0000  32.0000   9.5000   C.3       1 RES1  24.1942
   656 29.51   -0.5000  31.0000   7.5000   C.3       1 RES1  29.5134
   657 29.51   -0.5000  31.0000   8.0000   C.3       1 RES1  29.5134
   658 29.51   -0.5000  31.0000   8.5000   C.3       1 RES1  29.5134
   659 29.51   -0.5000  31.5000   7.5000   C.3       1 RES1  29.5134
   660 29.51   -0.5000  31.5000   8.0000   C.3       1 RES1  29.5134
   661 29.51   -0.5000  31.5000   8.5000   C.3       1 RES1  29.5134
   662 29.51   -0.5000  32.0000   7.5000   C.3       1 RES1  29.5134
   663 29.51   -0.5000  32.0000   8.0000   C.3       1 RES1  29.5134
   664 29.51   -0.5000  32.0000   8.5000   C.3       1 RES1  29.5134
   665 29.51    0.0000  31.5000   8.5000   C.3       1 RES1  29.5134
   666 29.51    0.0000  32.0000   8.5000   C.3       1 RES1  29.5134
   667 29.51    0.5000  31.5000   8.5000   C.3       1 RES1  29.5134
   668 29.51    0.5000  32.0000   8.5000   C.3       1 RES1  29.5134
   669 24.23    2.5000  26.5000   6.5000   C.3       1 RES1  24.2259
   670 24.23    3.0000  26.5000   6.5000   C.3       1 RES1  24.2259
   671 24.23    3.5000  26.5000   6.5000   C.3       1 RES1  24.2259
   672 24.35    1.5000  28.5000  10.5000   C.3       1 RES1  24.3499
   673 24.35    1.5000  29.0000  10.5000   C.3       1 RES1  24.3499
   674 24.35    1.5000  29.5000  10.5000   C.3       1 RES1  24.3499
   675 26.71    0.5000  31.5000   9.0000   C.3       1 RES1  26.7100
   676 23.64   -2.5000  32.0000   9.5000   C.3       1 RES1  23.6357
   677 23.64   -2.5000  32.5000   9.5000   C.3       1 RES1  23.6357
   678 23.64   -2.5000  33.0000   9.5000   C.3       1 RES1  23.6357
   679 23.64   -2.0000  33.0000   9.5000   C.3       1 RES1  23.6357
   680 28.19    3.5000  28.0000   7.0000   C.3       1 RES1  28.1860
   681 28.19    3.5000  28.0000   7.5000   C.3       1 RES1  28.1860
   682 28.19    3.5000  28.0000   8.0000   C.3       1 RES1  28.1860
   683 24.83    1.5000  28.5000   7.0000   C.3       1 RES1  24.8331
   684 24.83    1.5000  28.5000   7.5000   C.3       1 RES1  24.8331
   685 24.83    1.5000  28.5000   8.0000   C.3       1 RES1  24.8331
   686 25.02   -5.5000  29.5000  11.0000   C.3       1 RES1  25.0169
   687 25.02   -5.0000  29.5000  11.0000   C.3       1 RES1  25.0169
   688 25.02   -4.5000  29.5000  11.0000   C.3       1 RES1  25.0169
   689 25.22   -6.0000  26.0000  12.5000   C.3       1 RES1  25.2191
   690 25.22   -6.0000  26.5000  12.5000   C.3       1 RES1  25.2191
   691 25.22   -6.0000  27.0000  12.5000   C.3       1 RES1  25.2191
   692 25.22   -5.5000  26.0000  12.5000   C.3       1 RES1  25.2191
   693 25.22   -5.5000  26.5000  12.5000   C.3       1 RES1  25.2191
   694 25.22   -5.5000  27.0000  12.5000   C.3       1 RES1  25.2191
   695 25.22   -5.0000  26.0000  12.5000   C.3       1 RES1  25.2191
   696 25.22   -5.0000  26.5000  12.5000   C.3       1 RES1  25.2191
   697 25.22   -5.0000  27.0000  12.5000   C.3       1 RES1  25.2191
   698 24.59    0.0000  33.0000   8.0000   C.3       1 RES1  24.5899
   699 24.59    0.0000  33.0000   8.5000   C.3       1 RES1  24.5899
   700 24.59    0.0000  33.0000   9.0000   C.3       1 RES1  24.5899
   701 29.54    0.0000  32.5000   7.0000   C.3       1 RES1  29.5366
   702 29.54    0.0000  32.5000   7.5000   C.3       1 RES1  29.5366
   703 29.54    0.0000  32.5000   8.0000   C.3       1 RES1  29.5366
   704 29.54    0.5000  32.5000   8.0000   C.3       1 RES1  29.5366
   705 29.54    1.0000  32.5000   8.0000   C.3       1 RES1  29.5366
   706 24.00   -3.5000  28.5000  11.0000   C.3       1 RES1  24.0016
   707 24.00   -3.5000  28.5000  11.5000   C.3       1 RES1  24.0016
   708 24.00   -3.5000  28.5000  12.0000   C.3       1 RES1  24.0016
   709 24.00   -3.5000  29.0000  11.0000   C.3       1 RES1  24.0016
   710 24.00   -3.5000  29.0000  11.5000   C.3       1 RES1  24.0016
   711 24.00   -3.5000  29.0000  12.0000   C.3       1 RES1  24.0016
   712 24.00   -3.0000  28.5000  11.0000   C.3       1 RES1  24.0016
   713 24.00   -2.5000  28.5000  11.0000   C.3       1 RES1  24.0016
   714 24.53   -1.0000  32.5000  10.0000   C.3       1 RES1  24.5326
   715 24.53   -1.0000  32.5000  10.5000   C.3       1 RES1  24.5326
   716 24.53   -0.5000  32.5000  10.0000   C.3       1 RES1  24.5326
   717 24.53   -0.5000  32.5000  10.5000   C.3       1 RES1  24.5326
   718 23.76   -1.0000  26.5000  12.5000   C.3       1 RES1  23.7632
   719 23.76   -1.0000  26.5000  13.0000   C.3       1 RES1  23.7632
   720 23.76   -1.0000  26.5000  13.5000   C.3       1 RES1  23.7632
   721 23.76   -1.0000  27.0000  13.5000   C.3       1 RES1  23.7632
   722 24.30    3.5000  27.0000   9.0000   C.3       1 RES1  24.3003
   723 24.30    3.5000  27.5000   9.0000   C.3       1 RES1  24.3003
   724 25.70   -3.5000  28.0000   9.5000   C.3       1 RES1  25.6968
   725 25.70   -3.5000  28.0000  10.0000   C.3       1 RES1  25.6968
   726 25.70   -3.5000  28.0000  10.5000   C.3       1 RES1  25.6968
   727 25.70   -3.5000  28.5000  10.5000   C.3       1 RES1  25.6968
   728 25.70   -3.5000  29.0000  10.5000   C.3       1 RES1  25.6968
   729 24.29   -1.5000  31.0000   9.0000   C.3       1 RES1  24.2931
   730 25.86    1.5000  30.5000   9.0000   C.3       1 RES1  25.8643
   731 26.80   -1.5000  31.5000   7.5000   C.3       1 RES1  26.8046
   732 26.80   -1.5000  32.0000   7.5000   C.3       1 RES1  26.8046
   733 26.80   -1.5000  32.5000   7.5000   C.3       1 RES1  26.8046
   734 25.34   -1.5000  31.5000   9.5000   C.3       1 RES1  25.3422
   735 25.34   -1.5000  32.0000   9.5000   C.3       1 RES1  25.3422
   736 25.34   -1.5000  32.5000   9.5000   C.3       1 RES1  25.3422
   737 25.34   -1.0000  31.5000   9.5000   C.3       1 RES1  25.3422
   738 25.34   -1.0000  32.0000   9.5000   C.3       1 RES1  25.3422
   739 25.34   -1.0000  32.5000   9.5000   C.3       1 RES1  25.3422
   740 25.34   -0.5000  31.5000   9.5000   C.3       1 RES1  25.3422
   741 25.34   -0.5000  32.0000   9.5000   C.3       1 RES1  25.3422
   742 25.34   -0.5000  32.5000   9.5000   C.3       1 RES1  25.3422
   743 25.46    2.0000  25.0000   8.5000   C.3       1 RES1  25.4643
   744 25.46    2.0000  25.0000   9.0000   C.3       1 RES1  25.4643
   745 25.46    2.0000  25.0000   9.5000   C.3       1 RES1  25.4643
   746 25.46    2.0000  25.5000   8.5000   C.3       1 RES1  25.4643
   747 25.46    2.0000  25.5000   9.0000   C.3       1 RES1  25.4643
   748 25.46    2.0000  25.5000   9.5000   C.3       1 RES1  25.4643
   749 25.46    2.0000  26.0000   8.5000   C.3       1 RES1  25.4643
   750 25.46    2.0000  26.0000   9.0000   C.3       1 RES1  25.4643
   751 25.46    2.0000  26.0000   9.5000   C.3       1 RES1  25.4643
   752 25.46    2.5000  25.0000   8.5000   C.3       1 RES1  25.4643
   753 25.46    2.5000  25.0000   9.0000   C.3       1 RES1  25.4643
   754 25.46    2.5000  25.0000   9.5000   C.3       1 RES1  25.4643
   755 25.46    2.5000  25.5000   8.5000   C.3       1 RES1  25.4643
   756 25.46    2.5000  25.5000   9.0000   C.3       1 RES1  25.4643
   757 25.46    2.5000  25.5000   9.5000   C.3       1 RES1  25.4643
   758 25.46    2.5000  26.0000   9.0000   C.3       1 RES1  25.4643
   759 25.46    2.5000  26.0000   9.5000   C.3       1 RES1  25.4643
   760 25.46    3.0000  25.0000   8.5000   C.3       1 RES1  25.4643
   761 25.46    3.0000  25.0000   9.0000   C.3       1 RES1  25.4643
   762 25.46    3.0000  25.0000   9.5000   C.3       1 RES1  25.4643
   763 25.46    3.0000  25.5000   8.5000   C.3       1 RES1  25.4643
   764 25.46    3.0000  25.5000   9.0000   C.3       1 RES1  25.4643
   765 25.46    3.0000  25.5000   9.5000   C.3       1 RES1  25.4643
   766 25.46    3.0000  26.0000   9.0000   C.3       1 RES1  25.4643
   767 25.46    3.0000  26.0000   9.5000   C.3       1 RES1  25.4643
   768 24.14    0.5000  33.0000   7.5000   C.3       1 RES1  24.1416
   769 24.14    0.5000  33.0000   8.0000   C.3       1 RES1  24.1416
   770 24.14    0.5000  33.0000   8.5000   C.3       1 RES1  24.1416
   771 25.01    1.0000  26.5000   8.0000   C.3       1 RES1  25.0122
   772 25.01    1.0000  26.5000   8.5000   C.3       1 RES1  25.0122
   773 25.01    1.0000  26.5000   9.0000   C.3       1 RES1  25.0122
   774 25.01    1.5000  26.5000   9.0000   C.3       1 RES1  25.0122
   775 28.52   -0.5000  30.0000   9.0000   C.3       1 RES1  28.5205
   776 28.52   -0.5000  30.5000   9.0000   C.3       1 RES1  28.5205
   777 28.52   -0.5000  31.0000   9.0000   C.3       1 RES1  28.5205
   778 28.52    0.0000  30.0000   9.0000   C.3       1 RES1  28.5205
   779 28.52    0.0000  30.5000   9.0000   C.3       1 RES1  28.5205
   780 28.52    0.0000  31.0000   9.0000   C.3       1 RES1  28.5205
   781 28.52    0.5000  30.0000   9.0000   C.3       1 RES1  28.5205
   782 28.52    0.5000  30.5000   9.0000   C.3       1 RES1  28.5205
   783 28.52    0.5000  31.0000   9.0000   C.3       1 RES1  28.5205
   784 25.64   -1.0000  30.0000  11.5000   C.3       1 RES1  25.6383
   785 25.64   -1.0000  30.5000  11.5000   C.3       1 RES1  25.6383
   786 25.64   -1.0000  31.0000  11.5000   C.3       1 RES1  25.6383
   787 25.32   -6.0000  27.5000  12.0000   C.3       1 RES1  25.3231
   788 25.78   -0.5000  29.5000   7.0000   C.3       1 RES1  25.7837
   789 24.75    0.5000  30.0000   9.5000   C.3       1 RES1  24.7476
   790 24.75    0.5000  30.5000   9.5000   C.3       1 RES1  24.7476
   791 24.75    0.5000  31.0000   9.5000   C.3       1 RES1  24.7476
   792 28.00    1.5000  31.0000   8.5000   C.3       1 RES1  27.9971
   793 26.35    0.0000  30.0000  11.0000   C.3       1 RES1  26.3545
   794 26.35    0.0000  30.0000  11.5000   C.3       1 RES1  26.3545
   795 26.35    0.0000  30.0000  12.0000   C.3       1 RES1  26.3545
   796 26.35    0.5000  30.0000  11.0000   C.3       1 RES1  26.3545
   797 26.35    0.5000  30.0000  11.5000   C.3       1 RES1  26.3545
   798 26.35    0.5000  30.0000  12.0000   C.3       1 RES1  26.3545
   799 26.35    1.0000  30.0000  11.0000   C.3       1 RES1  26.3545
   800 26.35    1.0000  30.0000  11.5000   C.3       1 RES1  26.3545
   801 26.35    1.0000  30.0000  12.0000   C.3       1 RES1  26.3545
   802 23.62    1.0000  30.0000  13.0000   C.3       1 RES1  23.6207
   803 28.38    2.0000  27.0000   7.0000   C.3       1 RES1  28.3773
   804 28.38    2.0000  27.0000   7.5000   C.3       1 RES1  28.3773
   805 28.38    2.0000  27.0000   8.0000   C.3       1 RES1  28.3773
   806 28.38    2.0000  27.5000   7.0000   C.3       1 RES1  28.3773
   807 28.38    2.0000  27.5000   7.5000   C.3       1 RES1  28.3773
   808 28.38    2.0000  27.5000   8.0000   C.3       1 RES1  28.3773
   809 28.38    2.0000  28.0000   7.0000   C.3       1 RES1  28.3773
   810 28.38    2.0000  28.0000   7.5000   C.3       1 RES1  28.3773
   811 28.38    2.0000  28.0000   8.0000   C.3       1 RES1  28.3773
   812 28.38    2.5000  28.0000   7.0000   C.3       1 RES1  28.3773
   813 28.38    2.5000  28.0000   7.5000   C.3       1 RES1  28.3773
   814 28.38    2.5000  28.0000   8.0000   C.3       1 RES1  28.3773
   815 28.38    3.0000  28.0000   7.0000   C.3       1 RES1  28.3773
   816 28.38    3.0000  28.0000   7.5000   C.3       1 RES1  28.3773
   817 28.38    3.0000  28.0000   8.0000   C.3       1 RES1  28.3773
   818 29.07   -0.5000  29.5000   7.5000   C.3       1 RES1  29.0661
   819 29.07   -0.5000  29.5000   8.0000   C.3       1 RES1  29.0661
   820 29.07   -0.5000  29.5000   8.5000   C.3       1 RES1  29.0661
   821 24.96    0.0000  30.5000  11.5000   C.3       1 RES1  24.9573
   822 29.17    0.0000  30.5000   6.5000   C.3       1 RES1  29.1663
   823 23.93   -1.5000  26.5000   9.0000   C.3       1 RES1  23.9297
   824 23.93   -1.0000  26.5000   9.0000   C.3       1 RES1  23.9297
   825 23.93   -0.5000  26.5000   9.0000   C.3       1 RES1  23.9297
   826 23.79   -3.0000  27.5000   9.5000   C.3       1 RES1  23.7923
   827 23.79   -3.0000  27.5000  10.0000   C.3       1 RES1  23.7923
   828 23.79   -3.0000  27.5000  10.5000   C.3       1 RES1  23.7923
   829 23.74    0.0000  32.0000  10.0000   C.3       1 RES1  23.7378
   830 23.74    0.0000  32.0000  10.5000   C.3       1 RES1  23.7378
   831 26.65    1.5000  28.5000  11.5000   C.3       1 RES1  26.6496
   832 26.65    1.5000  28.5000  12.0000   C.3       1 RES1  26.6496
   833 26.65    1.5000  28.5000  12.5000   C.3       1 RES1  26.6496
   834 26.65    1.5000  29.0000  11.5000   C.3       1 RES1  26.6496
   835 26.65    1.5000  29.0000  12.0000   C.3       1 RES1  26.6496
   836 26.65    1.5000  29.0000  12.5000   C.3       1 RES1  26.6496
   837 26.65    1.5000  29.5000  11.5000   C.3       1 RES1  26.6496
   838 26.65    1.5000  29.5000  12.0000   C.3       1 RES1  26.6496
   839 26.65    1.5000  29.5000  12.5000   C.3       1 RES1  26.6496
   840 25.80   -1.0000  30.0000  12.5000   C.3       1 RES1  25.7972
   841 25.80   -1.0000  30.0000  13.0000   C.3       1 RES1  25.7972
   842 25.80   -1.0000  30.0000  13.5000   C.3       1 RES1  25.7972
   843 25.80   -0.5000  30.0000  12.5000   C.3       1 RES1  25.7972
   844 25.80   -0.5000  30.0000  13.0000   C.3       1 RES1  25.7972
   845 25.80   -0.5000  30.0000  13.5000   C.3       1 RES1  25.7972
   846 25.80    0.0000  30.0000  13.0000   C.3       1 RES1  25.7972
   847 25.80    0.0000  30.0000  13.5000   C.3       1 RES1  25.7972
   848 24.09    0.0000  28.5000  10.0000   C.3       1 RES1  24.0871
   849 23.78    2.5000  28.5000   8.5000   C.3       1 RES1  23.7817
   850 28.10   -5.0000  28.0000   9.0000   C.3       1 RES1  28.0956
   851 28.10   -5.0000  28.0000   9.5000   C.3       1 RES1  28.0956
   852 28.10   -5.0000  28.0000  10.0000   C.3       1 RES1  28.0956
   853 28.10   -5.0000  28.5000   9.0000   C.3       1 RES1  28.0956
   854 28.10   -5.0000  28.5000   9.5000   C.3       1 RES1  28.0956
   855 28.10   -5.0000  28.5000  10.0000   C.3       1 RES1  28.0956
   856 28.10   -5.0000  29.0000   9.0000   C.3       1 RES1  28.0956
   857 28.10   -5.0000  29.0000   9.5000   C.3       1 RES1  28.0956
   858 28.10   -5.0000  29.0000  10.0000   C.3       1 RES1  28.0956
   859 28.10   -4.5000  28.0000   9.0000   C.3       1 RES1  28.0956
   860 28.10   -4.5000  28.0000   9.5000   C.3       1 RES1  28.0956
   861 28.10   -4.5000  28.0000  10.0000   C.3       1 RES1  28.0956
   862 28.10   -4.5000  28.5000   9.0000   C.3       1 RES1  28.0956
   863 28.10   -4.5000  28.5000   9.5000   C.3       1 RES1  28.0956
   864 28.10   -4.5000  28.5000  10.0000   C.3       1 RES1  28.0956
   865 28.10   -4.5000  29.0000   9.0000   C.3       1 RES1  28.0956
   866 28.10   -4.5000  29.0000   9.5000   C.3       1 RES1  28.0956
   867 28.10   -4.5000  29.0000  10.0000   C.3       1 RES1  28.0956
   868 28.10   -4.0000  28.0000   9.0000   C.3       1 RES1  28.0956
   869 28.10   -4.0000  28.0000   9.5000   C.3       1 RES1  28.0956
   870 28.10   -4.0000  28.0000  10.0000   C.3       1 RES1  28.0956
   871 28.10   -4.0000  28.5000   9.0000   C.3       1 RES1  28.0956
   872 28.10   -4.0000  28.5000   9.5000   C.3       1 RES1  28.0956
   873 28.10   -4.0000  28.5000  10.0000   C.3       1 RES1  28.0956
   874 28.10   -4.0000  29.0000   9.0000   C.3       1 RES1  28.0956
   875 28.10   -4.0000  29.0000   9.5000   C.3       1 RES1  28.0956
   876 28.10   -4.0000  29.0000  10.0000   C.3       1 RES1  28.0956
   877 24.81   -0.5000  28.5000  10.5000   C.3       1 RES1  24.8124
   878 24.81   -0.5000  28.5000  11.0000   C.3       1 RES1  24.8124
   879 24.61   -1.5000  31.5000  11.5000   C.3       1 RES1  24.6133
   880 25.99   -1.0000  30.0000   9.0000   C.3       1 RES1  25.9864
   881 24.84   -1.5000  27.5000   9.5000   C.3       1 RES1  24.8400
   882 24.84   -1.5000  27.5000  10.0000   C.3       1 RES1  24.8400
   883 24.84   -1.5000  27.5000  10.5000   C.3       1 RES1  24.8400
   884 24.84   -1.0000  27.5000   9.5000   C.3       1 RES1  24.8400
   885 24.84   -1.0000  27.5000  10.0000   C.3       1 RES1  24.8400
   886 24.84   -1.0000  27.5000  10.5000   C.3       1 RES1  24.8400
   887 24.84   -0.5000  27.5000   9.5000   C.3       1 RES1  24.8400
   888 24.84   -0.5000  27.5000  10.0000   C.3       1 RES1  24.8400
   889 24.84   -0.5000  27.5000  10.5000   C.3       1 RES1  24.8400
   890 23.60   -3.5000  26.5000  13.0000   C.3       1 RES1  23.5975
   891 23.60   -3.5000  27.0000  13.0000   C.3       1 RES1  23.5975
   892 23.60   -3.5000  27.5000  13.0000   C.3       1 RES1  23.5975
   893 25.39   -3.0000  29.5000   8.0000   C.3       1 RES1  25.3877
   894 25.39   -3.0000  29.5000   8.5000   C.3       1 RES1  25.3877
   895 25.39   -3.0000  30.0000   8.0000   C.3       1 RES1  25.3877
   896 25.39   -3.0000  30.0000   8.5000   C.3       1 RES1  25.3877
   897 25.39   -3.0000  30.0000   9.0000   C.3       1 RES1  25.3877
   898 25.39   -3.0000  30.5000   8.0000   C.3       1 RES1  25.3877
   899 25.39   -3.0000  30.5000   8.5000   C.3       1 RES1  25.3877
   900 25.39   -3.0000  30.5000   9.0000   C.3       1 RES1  25.3877
   901 25.39   -2.5000  29.5000   8.0000   C.3       1 RES1  25.3877
   902 25.39   -2.5000  29.5000   8.5000   C.3       1 RES1  25.3877
   903 25.39   -2.5000  30.0000   8.0000   C.3       1 RES1  25.3877
   904 25.39   -2.5000  30.0000   8.5000   C.3       1 RES1  25.3877
   905 25.39   -2.5000  30.0000   9.0000   C.3       1 RES1  25.3877
   906 25.39   -2.5000  30.5000   8.0000   C.3       1 RES1  25.3877
   907 25.39   -2.5000  30.5000   8.5000   C.3       1 RES1  25.3877
   908 25.39   -2.5000  30.5000   9.0000   C.3       1 RES1  25.3877
   909 25.39   -2.0000  29.5000   8.0000   C.3       1 RES1  25.3877
   910 25.39   -2.0000  29.5000   8.5000   C.3       1 RES1  25.3877
   911 25.39   -2.0000  30.0000   8.0000   C.3       1 RES1  25.3877
   912 25.39   -2.0000  30.0000   8.5000   C.3       1 RES1  25.3877
   913 25.39   -2.0000  30.0000   9.0000   C.3       1 RES1  25.3877
   914 25.39   -2.0000  30.5000   8.0000   C.3       1 RES1  25.3877
   915 25.39   -2.0000  30.5000   8.5000   C.3       1 RES1  25.3877
   916 25.39   -2.0000  30.5000   9.0000   C.3       1 RES1  25.3877
   917 23.67   -3.5000  30.5000   9.5000   C.3       1 RES1  23.6721
   918 24.48   -2.0000  26.0000   9.5000   C.3       1 RES1  24.4813
   919 23.66   -1.0000  27.0000   8.5000   C.3       1 RES1  23.6575
   920 23.66   -1.0000  27.5000   8.5000   C.3       1 RES1  23.6575
   921 25.53   -3.0000  28.0000   9.0000   C.3       1 RES1  25.5299
   922 24.15   -4.0000  30.0000  12.0000   C.3       1 RES1  24.1532
   923 24.15   -4.0000  30.5000  12.0000   C.3       1 RES1  24.1532
   924 24.15   -4.0000  31.0000  12.0000   C.3       1 RES1  24.1532
   925 24.15   -3.5000  31.0000  12.0000   C.3       1 RES1  24.1532
   926 28.39   -0.5000  30.5000   7.0000   C.3       1 RES1  28.3855
   927 23.87   -0.5000  27.0000   8.0000   C.3       1 RES1  23.8680
   928 23.87   -0.5000  27.5000   8.0000   C.3       1 RES1  23.8680
   929 23.87   -0.5000  28.0000   8.0000   C.3       1 RES1  23.8680
   930 23.87    0.0000  27.0000   8.0000   C.3       1 RES1  23.8680
   931 23.87    0.0000  27.5000   8.0000   C.3       1 RES1  23.8680
   932 23.87    0.0000  28.0000   8.0000   C.3       1 RES1  23.8680
   933 23.95   -3.5000  28.0000  11.0000   C.3       1 RES1  23.9501
   934 23.95   -3.0000  28.0000  11.0000   C.3       1 RES1  23.9501
   935 23.95   -2.5000  28.0000  11.0000   C.3       1 RES1  23.9501
   936 24.18   -0.5000  32.5000   6.5000   C.3       1 RES1  24.1832
   937 27.40    1.5000  29.5000   7.0000   C.3       1 RES1  27.3990
   938 24.10    2.0000  25.0000   8.0000   C.3       1 RES1  24.1049
   939 24.10    2.0000  25.5000   8.0000   C.3       1 RES1  24.1049
   940 25.93    1.5000  29.0000   9.0000   C.3       1 RES1  25.9290
   941 25.93    1.5000  29.5000   9.0000   C.3       1 RES1  25.9290
   942 25.93    1.5000  30.0000   9.0000   C.3       1 RES1  25.9290
   943 24.69   -2.0000  26.5000   9.5000   C.3       1 RES1  24.6946
   944 24.69   -2.0000  27.0000   9.5000   C.3       1 RES1  24.6946
   945 24.69   -2.0000  27.5000   9.5000   C.3       1 RES1  24.6946
   946 28.74   -0.5000  31.0000   7.0000   C.3       1 RES1  28.7391
   947 24.67   -1.5000  33.0000   7.5000   C.3       1 RES1  24.6686
   948 24.67   -1.0000  33.0000   7.5000   C.3       1 RES1  24.6686
   949 24.67   -0.5000  33.0000   7.5000   C.3       1 RES1  24.6686
   950 24.66   -3.5000  29.5000  10.5000   C.3       1 RES1  24.6595
   951 24.66   -3.5000  29.5000  11.0000   C.3       1 RES1  24.6595
   952 24.66   -3.5000  29.5000  11.5000   C.3       1 RES1  24.6595
   953 24.35   -3.0000  31.0000   8.0000   C.3       1 RES1  24.3464
   954 24.35   -3.0000  31.0000   8.5000   C.3       1 RES1  24.3464
   955 24.35   -3.0000  31.0000   9.0000   C.3       1 RES1  24.3464
   956 24.35   -2.5000  31.0000   8.0000   C.3       1 RES1  24.3464
   957 24.35   -2.5000  31.0000   8.5000   C.3       1 RES1  24.3464
   958 24.35   -2.5000  31.0000   9.0000   C.3       1 RES1  24.3464
   959 24.35   -2.0000  31.0000   8.0000   C.3       1 RES1  24.3464
   960 24.35   -2.0000  31.0000   8.5000   C.3       1 RES1  24.3464
   961 24.35   -2.0000  31.0000   9.0000   C.3       1 RES1  24.3464
   962 25.64   -5.5000  28.0000   9.5000   C.3       1 RES1  25.6433
   963 25.64   -5.5000  28.0000  10.0000   C.3       1 RES1  25.6433
   964 25.64   -5.5000  28.0000  10.5000   C.3       1 RES1  25.6433
   965 25.64   -5.5000  28.5000   9.5000   C.3       1 RES1  25.6433
   966 25.64   -5.5000  28.5000  10.0000   C.3       1 RES1  25.6433
   967 25.64   -5.5000  28.5000  10.5000   C.3       1 RES1  25.6433
   968 25.64   -5.5000  29.0000   9.5000   C.3       1 RES1  25.6433
   969 25.64   -5.5000  29.0000  10.0000   C.3       1 RES1  25.6433
   970 25.64   -5.5000  29.0000  10.5000   C.3       1 RES1  25.6433
   971 27.46    0.0000  28.5000  11.0000   C.3       1 RES1  27.4599
   972 27.46    0.0000  29.0000  11.0000   C.3       1 RES1  27.4599
   973 27.46    0.0000  29.5000  11.0000   C.3       1 RES1  27.4599
   974 27.46    0.5000  28.5000  11.0000   C.3       1 RES1  27.4599
   975 27.46    0.5000  29.0000  11.0000   C.3       1 RES1  27.4599
   976 27.46    0.5000  29.5000  11.0000   C.3       1 RES1  27.4599
   977 27.46    1.0000  28.5000  11.0000   C.3       1 RES1  27.4599
   978 27.46    1.0000  29.0000  11.0000   C.3       1 RES1  27.4599
   979 27.46    1.0000  29.5000  11.0000   C.3       1 RES1  27.4599
   980 24.37    0.5000  28.0000  11.0000   C.3       1 RES1  24.3727
   981 24.27   -1.0000  29.0000   8.0000   C.3       1 RES1  24.2736
   982 24.27   -1.0000  29.0000   8.5000   C.3       1 RES1  24.2736
   983 28.35    2.0000  26.5000   7.5000   C.3       1 RES1  28.3526
   984 28.35    2.0000  26.5000   8.0000   C.3       1 RES1  28.3526
   985 28.35    2.0000  26.5000   8.5000   C.3       1 RES1  28.3526
   986 28.35    2.0000  27.0000   8.5000   C.3       1 RES1  28.3526
   987 28.35    2.0000  27.5000   8.5000   C.3       1 RES1  28.3526
   988 25.37   -3.0000  29.5000  11.0000   C.3       1 RES1  25.3655
   989 25.37   -3.0000  29.5000  11.5000   C.3       1 RES1  25.3655
   990 25.37   -3.0000  29.5000  12.0000   C.3       1 RES1  25.3655
   991 25.37   -3.0000  30.0000  12.0000   C.3       1 RES1  25.3655
   992 25.37   -3.0000  30.5000  12.0000   C.3       1 RES1  25.3655
   993 25.37   -2.5000  29.5000  11.0000   C.3       1 RES1  25.3655
   994 25.37   -2.5000  29.5000  11.5000   C.3       1 RES1  25.3655
   995 25.37   -2.5000  29.5000  12.0000   C.3       1 RES1  25.3655
   996 25.37   -2.5000  30.0000  12.0000   C.3       1 RES1  25.3655
   997 25.37   -2.5000  30.5000  12.0000   C.3       1 RES1  25.3655
   998 25.37   -2.0000  29.5000  11.0000   C.3       1 RES1  25.3655
   999 25.37   -2.0000  29.5000  11.5000   C.3       1 RES1  25.3655
  1000 25.37   -2.0000  29.5000  12.0000   C.3       1 RES1  25.3655
  1001 25.37   -2.0000  30.0000  12.0000   C.3       1 RES1  25.3655
  1002 25.37   -2.0000  30.5000  12.0000   C.3       1 RES1  25.3655
  1003 25.02   -2.5000  27.0000  12.0000   C.3       1 RES1  25.0165
  1004 25.02   -2.5000  27.5000  12.0000   C.3       1 RES1  25.0165
  1005 25.02   -2.5000  28.0000  12.0000   C.3       1 RES1  25.0165
  1006 25.02   -2.5000  28.0000  12.5000   C.3       1 RES1  25.0165
  1007 25.02   -2.5000  28.0000  13.0000   C.3       1 RES1  25.0165
  1008 25.02   -2.0000  27.0000  12.0000   C.3       1 RES1  25.0165
  1009 25.02   -2.0000  27.5000  12.0000   C.3       1 RES1  25.0165
  1010 25.02   -2.0000  28.0000  12.0000   C.3       1 RES1  25.0165
  1011 25.02   -2.0000  28.0000  12.5000   C.3       1 RES1  25.0165
  1012 25.02   -2.0000  28.0000  13.0000   C.3       1 RES1  25.0165
  1013 25.02   -1.5000  27.0000  12.0000   C.3       1 RES1  25.0165
  1014 25.02   -1.5000  27.5000  12.0000   C.3       1 RES1  25.0165
  1015 25.02   -1.5000  28.0000  12.0000   C.3       1 RES1  25.0165
  1016 25.02   -1.5000  28.0000  12.5000   C.3       1 RES1  25.0165
  1017 25.02   -1.5000  28.0000  13.0000   C.3       1 RES1  25.0165
  1018 23.95   -1.5000  29.5000   8.0000   C.3       1 RES1  23.9452
  1019 23.95   -1.5000  29.5000   8.5000   C.3       1 RES1  23.9452
  1020 23.95   -1.5000  29.5000   9.0000   C.3       1 RES1  23.9452
  1021 25.17    2.0000  32.5000   7.5000   C.3       1 RES1  25.1750
  1022 26.61    3.5000  28.0000   8.5000   C.3       1 RES1  26.6121
  1023 25.62   -1.5000  29.5000   9.5000   C.3       1 RES1  25.6170
  1024 25.62   -1.5000  30.0000   9.5000   C.3       1 RES1  25.6170
  1025 25.62   -1.5000  30.5000   9.5000   C.3       1 RES1  25.6170
  1026 25.62   -1.0000  29.5000   9.5000   C.3       1 RES1  25.6170
  1027 25.62   -0.5000  29.5000   9.5000   C.3       1 RES1  25.6170
  1028 29.65    0.0000  30.0000   7.0000   C.3       1 RES1  29.6525
  1029 29.65    0.5000  30.0000   7.0000   C.3       1 RES1  29.6525
  1030 29.65    1.0000  30.0000   7.0000   C.3       1 RES1  29.6525
  1031 25.92    4.0000  26.5000   8.5000   C.3       1 RES1  25.9214
  1032 25.92    4.0000  27.0000   8.5000   C.3       1 RES1  25.9214
  1033 25.92    4.0000  27.5000   8.5000   C.3       1 RES1  25.9214
  1034 25.18   -1.5000  31.0000   9.5000   C.3       1 RES1  25.1784
  1035 24.16    2.5000  25.0000   8.0000   C.3       1 RES1  24.1646
  1036 24.16    3.0000  25.0000   8.0000   C.3       1 RES1  24.1646
  1037 24.16    3.5000  25.0000   8.0000   C.3       1 RES1  24.1646
  1038 27.37    2.0000  26.5000   7.0000   C.3       1 RES1  27.3698
  1039 24.60   -1.5000  31.0000   7.5000   C.3       1 RES1  24.6048
  1040 24.60   -1.5000  31.0000   8.0000   C.3       1 RES1  24.6048
  1041 24.60   -1.5000  31.0000   8.5000   C.3       1 RES1  24.6048
  1042 25.07    0.0000  28.0000  11.5000   C.3       1 RES1  25.0657
  1043 25.07    0.5000  28.0000  11.5000   C.3       1 RES1  25.0657
  1044 25.07    1.0000  28.0000  11.5000   C.3       1 RES1  25.0657
  1045 25.07    1.0000  28.0000  12.0000   C.3       1 RES1  25.0657
  1046 25.07    1.0000  28.0000  12.5000   C.3       1 RES1  25.0657
  1047 24.10   -2.0000  32.5000   9.5000   C.3       1 RES1  24.1002
  1048 24.72   -3.0000  29.5000  10.5000   C.3       1 RES1  24.7233
  1049 26.38   -1.0000  28.5000  12.5000   C.3       1 RES1  26.3786
  1050 26.38   -1.0000  28.5000  13.0000   C.3       1 RES1  26.3786
  1051 26.38   -1.0000  28.5000  13.5000   C.3       1 RES1  26.3786
  1052 26.38   -1.0000  29.0000  12.5000   C.3       1 RES1  26.3786
  1053 26.38   -1.0000  29.0000  13.0000   C.3       1 RES1  26.3786
  1054 26.38   -1.0000  29.0000  13.5000   C.3       1 RES1  26.3786
  1055 26.38   -1.0000  29.5000  12.5000   C.3       1 RES1  26.3786
  1056 26.38   -1.0000  29.5000  13.0000   C.3       1 RES1  26.3786
  1057 26.38   -1.0000  29.5000  13.5000   C.3       1 RES1  26.3786
  1058 26.38   -0.5000  28.5000  12.5000   C.3       1 RES1  26.3786
  1059 26.38   -0.5000  28.5000  13.0000   C.3       1 RES1  26.3786
  1060 26.38   -0.5000  28.5000  13.5000   C.3       1 RES1  26.3786
  1061 26.38   -0.5000  29.0000  12.5000   C.3       1 RES1  26.3786
  1062 26.38   -0.5000  29.0000  13.0000   C.3       1 RES1  26.3786
  1063 26.38   -0.5000  29.0000  13.5000   C.3       1 RES1  26.3786
  1064 26.38   -0.5000  29.5000  12.5000   C.3       1 RES1  26.3786
  1065 26.38   -0.5000  29.5000  13.0000   C.3       1 RES1  26.3786
  1066 26.38   -0.5000  29.5000  13.5000   C.3       1 RES1  26.3786
  1067 26.38    0.0000  28.5000  13.0000   C.3       1 RES1  26.3786
  1068 26.38    0.0000  28.5000  13.5000   C.3       1 RES1  26.3786
  1069 26.38    0.0000  29.0000  13.0000   C.3       1 RES1  26.3786
  1070 26.38    0.0000  29.0000  13.5000   C.3       1 RES1  26.3786
  1071 26.38    0.0000  29.5000  13.0000   C.3       1 RES1  26.3786
  1072 26.38    0.0000  29.5000  13.5000   C.3       1 RES1  26.3786
  1073 24.78    1.5000  23.5000   8.5000   C.3       1 RES1  24.7769
  1074 24.78    1.5000  23.5000   9.0000   C.3       1 RES1  24.7769
  1075 24.78    1.5000  23.5000   9.5000   C.3       1 RES1  24.7769
  1076 24.78    1.5000  24.0000   8.5000   C.3       1 RES1  24.7769
  1077 24.78    1.5000  24.0000   9.0000   C.3       1 RES1  24.7769
  1078 24.78    1.5000  24.0000   9.5000   C.3       1 RES1  24.7769
  1079 24.78    2.0000  23.5000   8.5000   C.3       1 RES1  24.7769
  1080 24.78    2.0000  23.5000   9.0000   C.3       1 RES1  24.7769
  1081 24.78    2.0000  23.5000   9.5000   C.3       1 RES1  24.7769
  1082 24.78    2.0000  24.0000   8.5000   C.3       1 RES1  24.7769
  1083 24.78    2.0000  24.0000   9.0000   C.3       1 RES1  24.7769
  1084 24.78    2.0000  24.0000   9.5000   C.3       1 RES1  24.7769
  1085 24.78    2.5000  23.5000   8.5000   C.3       1 RES1  24.7769
  1086 24.78    2.5000  23.5000   9.0000   C.3       1 RES1  24.7769
  1087 24.78    2.5000  23.5000   9.5000   C.3       1 RES1  24.7769
  1088 24.78    2.5000  24.0000   8.5000   C.3       1 RES1  24.7769
  1089 24.78    2.5000  24.0000   9.0000   C.3       1 RES1  24.7769
  1090 24.78    2.5000  24.0000   9.5000   C.3       1 RES1  24.7769
  1091 23.60   -2.0000  27.0000   9.0000   C.3       1 RES1  23.6049
  1092 23.60   -2.0000  27.5000   9.0000   C.3       1 RES1  23.6049
  1093 24.88   -0.5000  28.5000  11.5000   C.3       1 RES1  24.8835
  1094 24.29   -3.0000  31.5000   8.0000   C.3       1 RES1  24.2875
  1095 24.29   -3.0000  31.5000   8.5000   C.3       1 RES1  24.2875
  1096 24.29   -3.0000  31.5000   9.0000   C.3       1 RES1  24.2875
  1097 24.29   -2.5000  31.5000   8.0000   C.3       1 RES1  24.2875
  1098 24.29   -2.5000  31.5000   8.5000   C.3       1 RES1  24.2875
  1099 24.29   -2.5000  31.5000   9.0000   C.3       1 RES1  24.2875
  1100 23.56   -5.0000  29.5000  11.5000   C.3       1 RES1  23.5595
  1101 23.56   -4.5000  29.5000  11.5000   C.3       1 RES1  23.5595
  1102 23.56   -4.0000  29.5000  11.5000   C.3       1 RES1  23.5595
  1103 23.89   -0.5000  27.0000   8.5000   C.3       1 RES1  23.8889
  1104 23.89   -0.5000  27.5000   8.5000   C.3       1 RES1  23.8889
  1105 23.89   -0.5000  28.0000   8.5000   C.3       1 RES1  23.8889
  1106 23.89    0.0000  27.0000   8.5000   C.3       1 RES1  23.8889
  1107 23.89    0.0000  27.0000   9.0000   C.3       1 RES1  23.8889
  1108 23.89    0.0000  27.0000   9.5000   C.3       1 RES1  23.8889
  1109 23.89    0.0000  27.5000   8.5000   C.3       1 RES1  23.8889
  1110 23.89    0.0000  27.5000   9.0000   C.3       1 RES1  23.8889
  1111 23.89    0.0000  27.5000   9.5000   C.3       1 RES1  23.8889
  1112 23.89    0.0000  28.0000   8.5000   C.3       1 RES1  23.8889
  1113 23.89    0.0000  28.0000   9.0000   C.3       1 RES1  23.8889
  1114 23.89    0.0000  28.0000   9.5000   C.3       1 RES1  23.8889
  1115 23.89    0.5000  27.0000   9.5000   C.3       1 RES1  23.8889
  1116 23.89    0.5000  27.5000   9.5000   C.3       1 RES1  23.8889
  1117 23.89    0.5000  28.0000   9.5000   C.3       1 RES1  23.8889
  1118 23.86    3.5000  28.5000   7.5000   C.3       1 RES1  23.8600
  1119 23.86    3.5000  28.5000   8.0000   C.3       1 RES1  23.8600
  1120 23.73    0.5000  29.5000   9.5000   C.3       1 RES1  23.7331
  1121 24.99    0.5000  32.0000   9.0000   C.3       1 RES1  24.9907
  1122 28.84    1.5000  29.5000   7.5000   C.3       1 RES1  28.8385
  1123 28.84    1.5000  29.5000   8.0000   C.3       1 RES1  28.8385
  1124 28.84    1.5000  29.5000   8.5000   C.3       1 RES1  28.8385
  1125 28.84    1.5000  30.0000   7.5000   C.3       1 RES1  28.8385
  1126 28.84    1.5000  30.0000   8.0000   C.3       1 RES1  28.8385
  1127 28.84    1.5000  30.0000   8.5000   C.3       1 RES1  28.8385
  1128 28.84    1.5000  30.5000   8.5000   C.3       1 RES1  28.8385
  1129 23.99   -5.0000  28.5000  11.5000   C.3       1 RES1  23.9921
  1130 23.99   -4.5000  28.5000  11.5000   C.3       1 RES1  23.9921
  1131 23.99   -4.0000  27.5000  11.0000   C.3       1 RES1  23.9921
  1132 23.99   -4.0000  28.5000  11.5000   C.3       1 RES1  23.9921
  1133 24.46    0.0000  33.0000   7.5000   C.3       1 RES1  24.4555
  1134 27.66   -0.5000  30.0000   7.0000   C.3       1 RES1  27.6557
  1135 24.18    2.0000  31.0000   8.5000   C.3       1 RES1  24.1824
  1136 24.75   -4.5000  26.0000  12.5000   C.3       1 RES1  24.7548
  1137 24.75   -4.5000  26.5000  12.5000   C.3       1 RES1  24.7548
  1138 24.75   -4.5000  27.0000  12.5000   C.3       1 RES1  24.7548
  1139 24.93    1.5000  29.0000   7.0000   C.3       1 RES1  24.9282
  1140 23.77   -1.0000  28.0000  10.5000   C.3       1 RES1  23.7679
  1141 23.83   -0.5000  30.5000   6.5000   C.3       1 RES1  23.8268
  1142 26.32   -1.0000  30.5000   8.0000   C.3       1 RES1  26.3206
  1143 26.32   -1.0000  30.5000   8.5000   C.3       1 RES1  26.3206
  1144 26.32   -1.0000  30.5000   9.0000   C.3       1 RES1  26.3206
  1145 26.32   -1.0000  31.0000   9.0000   C.3       1 RES1  26.3206
  1146 24.92   -1.5000  26.0000   9.5000   C.3       1 RES1  24.9244
  1147 24.92   -1.5000  26.0000  10.0000   C.3       1 RES1  24.9244
  1148 24.92   -1.5000  26.0000  10.5000   C.3       1 RES1  24.9244
  1149 24.92   -1.5000  26.5000   9.5000   C.3       1 RES1  24.9244
  1150 24.92   -1.5000  26.5000  10.0000   C.3       1 RES1  24.9244
  1151 24.92   -1.5000  26.5000  10.5000   C.3       1 RES1  24.9244
  1152 24.92   -1.5000  27.0000   9.5000   C.3       1 RES1  24.9244
  1153 24.92   -1.5000  27.0000  10.0000   C.3       1 RES1  24.9244
  1154 24.92   -1.5000  27.0000  10.5000   C.3       1 RES1  24.9244
  1155 24.92   -1.0000  26.0000   9.5000   C.3       1 RES1  24.9244
  1156 24.92   -1.0000  26.0000  10.0000   C.3       1 RES1  24.9244
  1157 24.92   -1.0000  26.0000  10.5000   C.3       1 RES1  24.9244
  1158 24.92   -1.0000  26.5000   9.5000   C.3       1 RES1  24.9244
  1159 24.92   -1.0000  26.5000  10.0000   C.3       1 RES1  24.9244
  1160 24.92   -1.0000  26.5000  10.5000   C.3       1 RES1  24.9244
  1161 24.92   -1.0000  27.0000   9.5000   C.3       1 RES1  24.9244
  1162 24.92   -1.0000  27.0000  10.0000   C.3       1 RES1  24.9244
  1163 24.92   -1.0000  27.0000  10.5000   C.3       1 RES1  24.9244
  1164 24.92   -0.5000  26.0000   9.5000   C.3       1 RES1  24.9244
  1165 24.92   -0.5000  26.0000  10.0000   C.3       1 RES1  24.9244
  1166 24.92   -0.5000  26.0000  10.5000   C.3       1 RES1  24.9244
  1167 24.92   -0.5000  26.5000   9.5000   C.3       1 RES1  24.9244
  1168 24.92   -0.5000  26.5000  10.0000   C.3       1 RES1  24.9244
  1169 24.92   -0.5000  26.5000  10.5000   C.3       1 RES1  24.9244
  1170 24.92   -0.5000  27.0000   9.5000   C.3       1 RES1  24.9244
  1171 24.92   -0.5000  27.0000  10.0000   C.3       1 RES1  24.9244
  1172 24.92   -0.5000  27.0000  10.5000   C.3       1 RES1  24.9244
  1173 26.57   -3.0000  28.0000   9.5000   C.3       1 RES1  26.5725
  1174 26.57   -3.0000  28.0000  10.0000   C.3       1 RES1  26.5725
  1175 26.57   -3.0000  28.0000  10.5000   C.3       1 RES1  26.5725
  1176 26.57   -3.0000  28.5000   9.5000   C.3       1 RES1  26.5725
  1177 26.57   -3.0000  28.5000  10.0000   C.3       1 RES1  26.5725
  1178 26.57   -3.0000  28.5000  10.5000   C.3       1 RES1  26.5725
  1179 26.57   -3.0000  29.0000   9.5000   C.3       1 RES1  26.5725
  1180 26.57   -3.0000  29.0000  10.0000   C.3       1 RES1  26.5725
  1181 26.57   -3.0000  29.0000  10.5000   C.3       1 RES1  26.5725
  1182 26.57   -2.5000  28.0000   9.5000   C.3       1 RES1  26.5725
  1183 26.57   -2.5000  28.0000  10.0000   C.3       1 RES1  26.5725
  1184 26.57   -2.5000  28.0000  10.5000   C.3       1 RES1  26.5725
  1185 26.57   -2.5000  28.5000   9.5000   C.3       1 RES1  26.5725
  1186 26.57   -2.5000  28.5000  10.0000   C.3       1 RES1  26.5725
  1187 26.57   -2.5000  28.5000  10.5000   C.3       1 RES1  26.5725
  1188 26.57   -2.5000  29.0000   9.5000   C.3       1 RES1  26.5725
  1189 26.57   -2.5000  29.0000  10.0000   C.3       1 RES1  26.5725
  1190 26.57   -2.5000  29.0000  10.5000   C.3       1 RES1  26.5725
  1191 26.57   -2.0000  28.0000   9.5000   C.3       1 RES1  26.5725
  1192 26.57   -2.0000  28.0000  10.0000   C.3       1 RES1  26.5725
  1193 26.57   -2.0000  28.0000  10.5000   C.3       1 RES1  26.5725
  1194 26.57   -2.0000  28.5000   9.5000   C.3       1 RES1  26.5725
  1195 26.57   -2.0000  28.5000  10.0000   C.3       1 RES1  26.5725
  1196 26.57   -2.0000  28.5000  10.5000   C.3       1 RES1  26.5725
  1197 26.57   -2.0000  29.0000   9.5000   C.3       1 RES1  26.5725
  1198 26.57   -2.0000  29.0000  10.0000   C.3       1 RES1  26.5725
  1199 26.57   -2.0000  29.0000  10.5000   C.3       1 RES1  26.5725
  1200 25.85   -3.5000  28.5000   8.5000   C.3       1 RES1  25.8547
  1201 25.85   -3.5000  28.5000   9.0000   C.3       1 RES1  25.8547
  1202 25.85   -3.5000  28.5000   9.5000   C.3       1 RES1  25.8547
  1203 25.85   -3.5000  29.0000   8.5000   C.3       1 RES1  25.8547
  1204 25.85   -3.5000  29.0000   9.0000   C.3       1 RES1  25.8547
  1205 25.85   -3.5000  29.0000   9.5000   C.3       1 RES1  25.8547
  1206 25.85   -3.5000  29.5000   8.5000   C.3       1 RES1  25.8547
  1207 25.85   -3.5000  29.5000   9.0000   C.3       1 RES1  25.8547
  1208 25.85   -3.5000  29.5000   9.5000   C.3       1 RES1  25.8547
  1209 26.24   -1.0000  30.0000   9.5000   C.3       1 RES1  26.2404
  1210 26.24   -1.0000  30.5000   9.5000   C.3       1 RES1  26.2404
  1211 26.24   -1.0000  31.0000   9.5000   C.3       1 RES1  26.2404
  1212 26.24   -1.0000  31.0000  10.0000   C.3       1 RES1  26.2404
  1213 26.24   -1.0000  31.0000  10.5000   C.3       1 RES1  26.2404
  1214 26.24   -0.5000  30.0000   9.5000   C.3       1 RES1  26.2404
  1215 26.24   -0.5000  30.5000   9.5000   C.3       1 RES1  26.2404
  1216 26.24   -0.5000  31.0000   9.5000   C.3       1 RES1  26.2404
  1217 26.24   -0.5000  31.0000  10.0000   C.3       1 RES1  26.2404
  1218 26.24   -0.5000  31.0000  10.5000   C.3       1 RES1  26.2404
  1219 26.24    0.0000  30.0000   9.5000   C.3       1 RES1  26.2404
  1220 26.24    0.0000  30.0000  10.0000   C.3       1 RES1  26.2404
  1221 26.24    0.0000  30.0000  10.5000   C.3       1 RES1  26.2404
  1222 26.24    0.0000  30.5000   9.5000   C.3       1 RES1  26.2404
  1223 26.24    0.0000  30.5000  10.0000   C.3       1 RES1  26.2404
  1224 26.24    0.0000  30.5000  10.5000   C.3       1 RES1  26.2404
  1225 26.24    0.0000  31.0000   9.5000   C.3       1 RES1  26.2404
  1226 26.24    0.0000  31.0000  10.0000   C.3       1 RES1  26.2404
  1227 26.24    0.0000  31.0000  10.5000   C.3       1 RES1  26.2404
  1228 24.93    0.5000  28.5000  13.5000   C.3       1 RES1  24.9325
  1229 24.93    0.5000  29.0000  13.5000   C.3       1 RES1  24.9325
  1230 24.93    0.5000  29.5000  13.5000   C.3       1 RES1  24.9325
  1231 26.33   -6.0000  26.0000  11.0000   C.3       1 RES1  26.3266
  1232 26.33   -6.0000  26.0000  11.5000   C.3       1 RES1  26.3266
  1233 26.33   -6.0000  26.0000  12.0000   C.3       1 RES1  26.3266
  1234 26.33   -6.0000  26.5000  11.0000   C.3       1 RES1  26.3266
  1235 26.33   -6.0000  26.5000  11.5000   C.3       1 RES1  26.3266
  1236 26.33   -6.0000  26.5000  12.0000   C.3       1 RES1  26.3266
  1237 26.33   -6.0000  27.0000  11.0000   C.3       1 RES1  26.3266
  1238 26.33   -6.0000  27.0000  11.5000   C.3       1 RES1  26.3266
  1239 26.33   -6.0000  27.0000  12.0000   C.3       1 RES1  26.3266
  1240 26.33   -5.5000  26.0000  11.0000   C.3       1 RES1  26.3266
  1241 26.33   -5.5000  26.0000  11.5000   C.3       1 RES1  26.3266
  1242 26.33   -5.5000  26.0000  12.0000   C.3       1 RES1  26.3266
  1243 26.33   -5.5000  26.5000  11.5000   C.3       1 RES1  26.3266
  1244 26.33   -5.5000  26.5000  12.0000   C.3       1 RES1  26.3266
  1245 26.33   -5.5000  27.0000  11.5000   C.3       1 RES1  26.3266
  1246 26.33   -5.5000  27.0000  12.0000   C.3       1 RES1  26.3266
  1247 26.33   -5.0000  26.0000  11.0000   C.3       1 RES1  26.3266
  1248 26.33   -5.0000  26.0000  11.5000   C.3       1 RES1  26.3266
  1249 26.33   -5.0000  26.0000  12.0000   C.3       1 RES1  26.3266
  1250 26.33   -5.0000  26.5000  11.5000   C.3       1 RES1  26.3266
  1251 26.33   -5.0000  26.5000  12.0000   C.3       1 RES1  26.3266
  1252 26.33   -5.0000  27.0000  11.5000   C.3       1 RES1  26.3266
  1253 26.33   -5.0000  27.0000  12.0000   C.3       1 RES1  26.3266
  1254 23.92   -2.0000  27.0000  11.5000   C.3       1 RES1  23.9212
  1255 23.92   -1.5000  27.0000  11.5000   C.3       1 RES1  23.9212
  1256 26.16    1.5000  28.5000  11.0000   C.3       1 RES1  26.1576
  1257 26.16    1.5000  29.0000  11.0000   C.3       1 RES1  26.1576
  1258 26.16    1.5000  29.5000  11.0000   C.3       1 RES1  26.1576
  1259 25.47   -6.0000  27.5000  10.5000   C.3       1 RES1  25.4663
  1260 25.47   -6.0000  27.5000  11.0000   C.3       1 RES1  25.4663
  1261 25.47   -6.0000  27.5000  11.5000   C.3       1 RES1  25.4663
  1262 24.16   -4.0000  26.5000  11.5000   C.3       1 RES1  24.1610
  1263 24.16   -4.0000  26.5000  12.0000   C.3       1 RES1  24.1610
  1264 24.16   -4.0000  26.5000  12.5000   C.3       1 RES1  24.1610
  1265 24.16   -3.5000  26.5000  11.5000   C.3       1 RES1  24.1610
  1266 24.16   -3.5000  26.5000  12.0000   C.3       1 RES1  24.1610
  1267 24.16   -3.5000  26.5000  12.5000   C.3       1 RES1  24.1610
  1268 24.16   -3.0000  26.5000  11.5000   C.3       1 RES1  24.1610
  1269 24.16   -3.0000  26.5000  12.0000   C.3       1 RES1  24.1610
  1270 24.16   -3.0000  26.5000  12.5000   C.3       1 RES1  24.1610
  1271 23.58   -6.0000  27.5000  12.5000   C.3       1 RES1  23.5828
  1272 23.78   -3.5000  28.5000  12.5000   C.3       1 RES1  23.7776
  1273 27.80   -1.0000  31.5000   7.5000   C.3       1 RES1  27.7958
  1274 27.80   -1.0000  31.5000   8.0000   C.3       1 RES1  27.7958
  1275 27.80   -1.0000  31.5000   8.5000   C.3       1 RES1  27.7958
  1276 27.80   -1.0000  32.0000   7.5000   C.3       1 RES1  27.7958
  1277 27.80   -1.0000  32.0000   8.0000   C.3       1 RES1  27.7958
  1278 27.80   -1.0000  32.0000   8.5000   C.3       1 RES1  27.7958
  1279 27.80   -1.0000  32.5000   7.5000   C.3       1 RES1  27.7958
  1280 27.80   -1.0000  32.5000   8.0000   C.3       1 RES1  27.7958
  1281 27.80   -1.0000  32.5000   8.5000   C.3       1 RES1  27.7958
  1282 23.90   -0.5000  27.0000  12.0000   C.3       1 RES1  23.8972
  1283 23.90   -0.5000  27.0000  12.5000   C.3       1 RES1  23.8972
  1284 23.90   -0.5000  27.0000  13.0000   C.3       1 RES1  23.8972
  1285 23.90    0.0000  27.0000  12.0000   C.3       1 RES1  23.8972
  1286 23.90    0.0000  27.0000  12.5000   C.3       1 RES1  23.8972
  1287 23.90    0.0000  27.0000  13.0000   C.3       1 RES1  23.8972
  1288 26.71   -5.0000  28.0000  10.5000   C.3       1 RES1  26.7073
  1289 26.71   -5.0000  28.5000  10.5000   C.3       1 RES1  26.7073
  1290 26.71   -5.0000  29.0000  10.5000   C.3       1 RES1  26.7073
  1291 26.71   -4.5000  28.0000  10.5000   C.3       1 RES1  26.7073
  1292 26.71   -4.5000  28.5000  10.5000   C.3       1 RES1  26.7073
  1293 26.71   -4.5000  29.0000  10.5000   C.3       1 RES1  26.7073
  1294 26.71   -4.0000  28.0000  10.5000   C.3       1 RES1  26.7073
  1295 26.71   -4.0000  28.5000  10.5000   C.3       1 RES1  26.7073
  1296 26.71   -4.0000  29.0000  10.5000   C.3       1 RES1  26.7073
  1297 24.25   -5.5000  27.5000  12.5000   C.3       1 RES1  24.2485
  1298 24.25   -5.0000  27.5000  12.5000   C.3       1 RES1  24.2485
  1299 24.25   -4.5000  27.5000  12.5000   C.3       1 RES1  24.2485
  1300 25.02   -5.5000  29.5000   9.0000   C.3       1 RES1  25.0245
  1301 24.20   -3.5000  31.5000  10.0000   C.3       1 RES1  24.1985
  1302 24.20   -3.5000  31.5000  10.5000   C.3       1 RES1  24.1985
  1303 24.20   -3.5000  32.0000  10.0000   C.3       1 RES1  24.1985
  1304 24.20   -3.5000  32.0000  10.5000   C.3       1 RES1  24.1985
  1305 24.20   -3.5000  32.5000  10.0000   C.3       1 RES1  24.1985
  1306 24.20   -3.5000  32.5000  10.5000   C.3       1 RES1  24.1985
  1307 24.58    2.0000  24.5000  10.0000   C.3       1 RES1  24.5771
  1308 24.58    2.0000  25.0000  10.0000   C.3       1 RES1  24.5771
  1309 24.58    2.0000  25.5000  10.0000   C.3       1 RES1  24.5771
  1310 24.58    2.5000  24.5000  10.0000   C.3       1 RES1  24.5771
  1311 24.58    2.5000  25.0000  10.0000   C.3       1 RES1  24.5771
  1312 24.58    2.5000  25.5000  10.0000   C.3       1 RES1  24.5771
  1313 24.58    3.0000  24.5000  10.0000   C.3       1 RES1  24.5771
  1314 24.58    3.0000  25.0000  10.0000   C.3       1 RES1  24.5771
  1315 24.58    3.0000  25.5000  10.0000   C.3       1 RES1  24.5771
  1316 25.91   -0.5000  29.0000   9.0000   C.3       1 RES1  25.9060
  1317 23.72    0.0000  32.5000  10.0000   C.3       1 RES1  23.7161
  1318 24.30    1.0000  28.0000  13.0000   C.3       1 RES1  24.3027
  1319 24.74    4.0000  26.0000   7.5000   C.3       1 RES1  24.7410
  1320 24.74    4.0000  26.0000   8.0000   C.3       1 RES1  24.7410
  1321 24.74    4.0000  26.0000   8.5000   C.3       1 RES1  24.7410
  1322 25.12   -1.0000  27.5000  12.0000   C.3       1 RES1  25.1226
  1323 25.12   -1.0000  27.5000  12.5000   C.3       1 RES1  25.1226
  1324 25.12   -1.0000  27.5000  13.0000   C.3       1 RES1  25.1226
  1325 25.12   -1.0000  28.0000  12.0000   C.3       1 RES1  25.1226
  1326 25.12   -1.0000  28.0000  12.5000   C.3       1 RES1  25.1226
  1327 25.12   -1.0000  28.0000  13.0000   C.3       1 RES1  25.1226
  1328 25.12   -1.0000  28.5000  12.0000   C.3       1 RES1  25.1226
  1329 25.12   -0.5000  27.5000  12.0000   C.3       1 RES1  25.1226
  1330 25.12   -0.5000  27.5000  12.5000   C.3       1 RES1  25.1226
  1331 25.12   -0.5000  27.5000  13.0000   C.3       1 RES1  25.1226
  1332 25.12    0.0000  27.5000  12.0000   C.3       1 RES1  25.1226
  1333 25.12    0.0000  27.5000  12.5000   C.3       1 RES1  25.1226
  1334 25.12    0.0000  27.5000  13.0000   C.3       1 RES1  25.1226
  1335 23.82    1.0000  28.5000   9.0000   C.3       1 RES1  23.8171
  1336 23.82    1.5000  28.5000   9.0000   C.3       1 RES1  23.8171
  1337 23.82    2.0000  28.5000   9.0000   C.3       1 RES1  23.8171
  1338 24.89   -0.5000  31.5000  11.0000   C.3       1 RES1  24.8907
  1339 23.73   -0.5000  29.0000   7.0000   C.3       1 RES1  23.7261
  1340 26.02    1.0000  27.0000   8.0000   C.3       1 RES1  26.0179
  1341 26.02    1.0000  27.0000   8.5000   C.3       1 RES1  26.0179
  1342 26.02    1.0000  27.0000   9.0000   C.3       1 RES1  26.0179
  1343 26.02    1.0000  27.5000   8.0000   C.3       1 RES1  26.0179
  1344 26.02    1.0000  27.5000   8.5000   C.3       1 RES1  26.0179
  1345 26.02    1.0000  27.5000   9.0000   C.3       1 RES1  26.0179
  1346 26.02    1.0000  28.0000   8.0000   C.3       1 RES1  26.0179
  1347 26.02    1.0000  28.0000   8.5000   C.3       1 RES1  26.0179
  1348 26.02    1.0000  28.0000   9.0000   C.3       1 RES1  26.0179
  1349 26.02    1.5000  27.0000   9.0000   C.3       1 RES1  26.0179
  1350 26.02    1.5000  27.5000   9.0000   C.3       1 RES1  26.0179
  1351 26.02    1.5000  28.0000   9.0000   C.3       1 RES1  26.0179
  1352 26.02    2.0000  27.0000   9.0000   C.3       1 RES1  26.0179
  1353 26.02    2.0000  27.5000   9.0000   C.3       1 RES1  26.0179
  1354 26.02    2.0000  28.0000   9.0000   C.3       1 RES1  26.0179
  1355 24.14    0.5000  31.5000   9.5000   C.3       1 RES1  24.1385
  1356 23.81    2.0000  30.5000   9.0000   C.3       1 RES1  23.8078
  1357 25.78    2.0000  31.0000   8.0000   C.3       1 RES1  25.7847
  1358 25.78    2.0000  31.5000   8.0000   C.3       1 RES1  25.7847
  1359 25.78    2.0000  32.0000   8.0000   C.3       1 RES1  25.7847
  1360 24.27   -2.5000  26.5000  12.0000   C.3       1 RES1  24.2736
  1361 24.27   -2.0000  26.5000  12.0000   C.3       1 RES1  24.2736
  1362 24.27   -1.5000  26.5000  12.0000   C.3       1 RES1  24.2736
  1363 28.83    1.5000  30.0000   7.0000   C.3       1 RES1  28.8307
  1364 27.10    0.0000  29.0000   7.5000   C.3       1 RES1  27.1027
  1365 27.10    0.0000  29.0000   8.0000   C.3       1 RES1  27.1027
  1366 27.10    0.0000  29.0000   8.5000   C.3       1 RES1  27.1027
  1367 27.10    0.5000  29.0000   7.5000   C.3       1 RES1  27.1027
  1368 27.10    0.5000  29.0000   8.0000   C.3       1 RES1  27.1027
  1369 27.10    0.5000  29.0000   8.5000   C.3       1 RES1  27.1027
  1370 27.10    1.0000  29.0000   7.5000   C.3       1 RES1  27.1027
  1371 27.10    1.0000  29.0000   8.0000   C.3       1 RES1  27.1027
  1372 27.10    1.0000  29.0000   8.5000   C.3       1 RES1  27.1027
  1373 24.81   -2.5000  28.5000  12.0000   C.3       1 RES1  24.8071
  1374 24.81   -2.5000  28.5000  12.5000   C.3       1 RES1  24.8071
  1375 24.81   -2.5000  28.5000  13.0000   C.3       1 RES1  24.8071
  1376 24.81   -2.0000  28.5000  12.0000   C.3       1 RES1  24.8071
  1377 24.81   -2.0000  28.5000  12.5000   C.3       1 RES1  24.8071
  1378 24.81   -2.0000  28.5000  13.0000   C.3       1 RES1  24.8071
  1379 24.81   -1.5000  28.5000  12.0000   C.3       1 RES1  24.8071
  1380 24.81   -1.5000  28.5000  12.5000   C.3       1 RES1  24.8071
  1381 24.81   -1.5000  28.5000  13.0000   C.3       1 RES1  24.8071
  1382 23.68    0.5000  28.5000   7.5000   C.3       1 RES1  23.6799
  1383 23.68    0.5000  28.5000   8.0000   C.3       1 RES1  23.6799
  1384 23.68    0.5000  28.5000   8.5000   C.3       1 RES1  23.6799
  1385 25.35    2.0000  24.5000   8.5000   C.3       1 RES1  25.3539
  1386 25.35    2.0000  24.5000   9.0000   C.3       1 RES1  25.3539
  1387 25.35    2.0000  24.5000   9.5000   C.3       1 RES1  25.3539
  1388 25.35    2.5000  24.5000   8.5000   C.3       1 RES1  25.3539
  1389 25.35    2.5000  24.5000   9.0000   C.3       1 RES1  25.3539
  1390 25.35    2.5000  24.5000   9.5000   C.3       1 RES1  25.3539
  1391 25.35    3.0000  24.5000   8.5000   C.3       1 RES1  25.3539
  1392 25.35    3.0000  24.5000   9.0000   C.3       1 RES1  25.3539
  1393 25.35    3.0000  24.5000   9.5000   C.3       1 RES1  25.3539
  1394 26.54    1.5000  29.0000   7.5000   C.3       1 RES1  26.5421
  1395 26.54    1.5000  29.0000   8.0000   C.3       1 RES1  26.5421
  1396 26.54    1.5000  29.0000   8.5000   C.3       1 RES1  26.5421
  1397 23.98    0.5000  32.5000   9.0000   C.3       1 RES1  23.9808
  1398 23.83   -4.0000  28.5000  12.0000   C.3       1 RES1  23.8274
  1399 23.83   -4.0000  29.0000  11.5000   C.3       1 RES1  23.8274
  1400 23.83   -4.0000  29.0000  12.0000   C.3       1 RES1  23.8274
  1401 24.99   -4.0000  29.5000  11.0000   C.3       1 RES1  24.9863
  1402 24.62    0.0000  31.5000  10.0000   C.3       1 RES1  24.6178
  1403 24.62    0.0000  31.5000  10.5000   C.3       1 RES1  24.6178
  1404 25.17   -0.5000  29.5000  11.5000   C.3       1 RES1  25.1661
  1405 25.17   -0.5000  30.0000  11.5000   C.3       1 RES1  25.1661
  1406 25.17   -0.5000  30.5000  11.5000   C.3       1 RES1  25.1661
  1407 23.60    3.0000  23.5000   8.5000   C.3       1 RES1  23.6047
  1408 23.60    3.0000  23.5000   9.0000   C.3       1 RES1  23.6047
  1409 23.60    3.0000  23.5000   9.5000   C.3       1 RES1  23.6047
  1410 23.60    3.0000  24.0000   8.5000   C.3       1 RES1  23.6047
  1411 23.60    3.0000  24.0000   9.0000   C.3       1 RES1  23.6047
  1412 23.60    3.0000  24.0000   9.5000   C.3       1 RES1  23.6047
  1413 25.84   -6.0000  26.0000  10.5000   C.3       1 RES1  25.8448
  1414 25.84   -6.0000  26.5000  10.5000   C.3       1 RES1  25.8448
  1415 25.84   -6.0000  27.0000  10.5000   C.3       1 RES1  25.8448
  1416 25.84   -5.5000  26.0000  10.5000   C.3       1 RES1  25.8448
  1417 25.84   -5.0000  26.0000  10.5000   C.3       1 RES1  25.8448
  1418 26.35   -1.5000  29.5000  10.0000   C.3       1 RES1  26.3528
  1419 26.35   -1.5000  29.5000  10.5000   C.3       1 RES1  26.3528
  1420 26.35   -1.5000  29.5000  11.0000   C.3       1 RES1  26.3528
  1421 26.35   -1.5000  30.0000  10.0000   C.3       1 RES1  26.3528
  1422 26.35   -1.5000  30.5000  10.0000   C.3       1 RES1  26.3528
  1423 26.35   -1.0000  29.5000  10.0000   C.3       1 RES1  26.3528
  1424 26.35   -1.0000  29.5000  10.5000   C.3       1 RES1  26.3528
  1425 26.35   -1.0000  29.5000  11.0000   C.3       1 RES1  26.3528
  1426 26.35   -1.0000  30.0000  10.0000   C.3       1 RES1  26.3528
  1427 26.35   -1.0000  30.0000  10.5000   C.3       1 RES1  26.3528
  1428 26.35   -1.0000  30.0000  11.0000   C.3       1 RES1  26.3528
  1429 26.35   -1.0000  30.5000  10.0000   C.3       1 RES1  26.3528
  1430 26.35   -1.0000  30.5000  10.5000   C.3       1 RES1  26.3528
  1431 26.35   -1.0000  30.5000  11.0000   C.3       1 RES1  26.3528
  1432 26.35   -0.5000  29.5000  10.0000   C.3       1 RES1  26.3528
  1433 26.35   -0.5000  29.5000  10.5000   C.3       1 RES1  26.3528
  1434 26.35   -0.5000  29.5000  11.0000   C.3       1 RES1  26.3528
  1435 26.35   -0.5000  30.0000  10.0000   C.3       1 RES1  26.3528
  1436 26.35   -0.5000  30.0000  10.5000   C.3       1 RES1  26.3528
  1437 26.35   -0.5000  30.0000  11.0000   C.3       1 RES1  26.3528
  1438 26.35   -0.5000  30.5000  10.0000   C.3       1 RES1  26.3528
  1439 26.35   -0.5000  30.5000  10.5000   C.3       1 RES1  26.3528
  1440 26.35   -0.5000  30.5000  11.0000   C.3       1 RES1  26.3528
  1441 24.28   -1.5000  27.5000  11.5000   C.3       1 RES1  24.2848
  1442 24.28   -1.5000  28.0000  11.5000   C.3       1 RES1  24.2848
  1443 24.28   -1.5000  28.5000  11.5000   C.3       1 RES1  24.2848
  1444 25.77   -1.0000  29.5000   9.0000   C.3       1 RES1  25.7741
  1445 25.11   -0.5000  31.0000   6.5000   C.3       1 RES1  25.1092
  1446 25.11   -0.5000  31.5000   6.5000   C.3       1 RES1  25.1092
  1447 25.11   -0.5000  32.0000   6.5000   C.3       1 RES1  25.1092
  1448 26.17   -1.5000  33.0000   8.0000   C.3       1 RES1  26.1659
  1449 26.17   -1.5000  33.0000   8.5000   C.3       1 RES1  26.1659
  1450 26.17   -1.5000  33.0000   9.0000   C.3       1 RES1  26.1659
  1451 26.17   -1.0000  33.0000   8.0000   C.3       1 RES1  26.1659
  1452 26.17   -1.0000  33.0000   8.5000   C.3       1 RES1  26.1659
  1453 26.17   -1.0000  33.0000   9.0000   C.3       1 RES1  26.1659
  1454 26.17   -0.5000  33.0000   8.0000   C.3       1 RES1  26.1659
  1455 26.17   -0.5000  33.0000   8.5000   C.3       1 RES1  26.1659
  1456 26.17   -0.5000  33.0000   9.0000   C.3       1 RES1  26.1659
  1457 28.04    0.0000  29.5000   9.0000   C.3       1 RES1  28.0354
  1458 28.04    0.5000  29.5000   9.0000   C.3       1 RES1  28.0354
  1459 28.04    1.0000  29.5000   9.0000   C.3       1 RES1  28.0354
  1460 28.04    1.0000  30.0000   9.0000   C.3       1 RES1  28.0354
  1461 28.04    1.0000  30.5000   9.0000   C.3       1 RES1  28.0354
  1462 30.26    0.0000  31.0000   6.5000   C.3       1 RES1  30.2556
  1463 30.26    0.0000  31.5000   6.5000   C.3       1 RES1  30.2556
  1464 30.26    0.0000  32.0000   6.5000   C.3       1 RES1  30.2556
  1465 23.67   -1.5000  26.0000   9.0000   C.3       1 RES1  23.6700
  1466 23.67   -1.0000  26.0000   9.0000   C.3       1 RES1  23.6700
  1467 23.67   -0.5000  26.0000   9.0000   C.3       1 RES1  23.6700
  1468 29.27    1.5000  30.5000   8.0000   C.3       1 RES1  29.2660
  1469 24.49   -3.0000  29.0000   8.5000   C.3       1 RES1  24.4925
  1470 24.49   -3.0000  30.0000   9.5000   C.3       1 RES1  24.4925
  1471 24.49   -2.5000  29.0000   8.5000   C.3       1 RES1  24.4925
  1472 24.49   -2.5000  30.0000   9.5000   C.3       1 RES1  24.4925
  1473 24.82   -4.0000  30.0000  11.5000   C.3       1 RES1  24.8177
  1474 24.82   -4.0000  30.5000  10.5000   C.3       1 RES1  24.8177
  1475 24.82   -4.0000  30.5000  11.0000   C.3       1 RES1  24.8177
  1476 24.82   -4.0000  30.5000  11.5000   C.3       1 RES1  24.8177
  1477 24.82   -4.0000  31.0000  10.5000   C.3       1 RES1  24.8177
  1478 24.82   -4.0000  31.0000  11.0000   C.3       1 RES1  24.8177
  1479 24.82   -4.0000  31.0000  11.5000   C.3       1 RES1  24.8177
  1480 24.06   -5.5000  30.0000  11.0000   C.3       1 RES1  24.0550
  1481 26.34    2.5000  26.0000   7.5000   C.3       1 RES1  26.3439
  1482 26.34    2.5000  26.0000   8.0000   C.3       1 RES1  26.3439
  1483 26.34    2.5000  26.0000   8.5000   C.3       1 RES1  26.3439
  1484 26.34    3.0000  26.0000   7.5000   C.3       1 RES1  26.3439
  1485 26.34    3.0000  26.0000   8.0000   C.3       1 RES1  26.3439
  1486 26.34    3.0000  26.0000   8.5000   C.3       1 RES1  26.3439
  1487 26.34    3.5000  26.0000   7.5000   C.3       1 RES1  26.3439
  1488 26.34    3.5000  26.0000   8.0000   C.3       1 RES1  26.3439
  1489 26.34    3.5000  26.0000   8.5000   C.3       1 RES1  26.3439
  1490 24.23   -0.5000  32.0000  11.0000   C.3       1 RES1  24.2269
  1491 24.45   -2.0000  29.0000  12.0000   C.3       1 RES1  24.4454
  1492 24.45   -2.0000  29.0000  12.5000   C.3       1 RES1  24.4454
  1493 24.45   -2.0000  29.0000  13.0000   C.3       1 RES1  24.4454
  1494 24.45   -1.5000  29.0000  12.0000   C.3       1 RES1  24.4454
  1495 24.45   -1.5000  29.0000  12.5000   C.3       1 RES1  24.4454
  1496 24.45   -1.5000  29.0000  13.0000   C.3       1 RES1  24.4454
  1497 25.49    0.5000  27.0000   8.0000   C.3       1 RES1  25.4924
  1498 25.49    0.5000  27.0000   8.5000   C.3       1 RES1  25.4924
  1499 25.49    0.5000  27.0000   9.0000   C.3       1 RES1  25.4924
  1500 25.49    0.5000  27.5000   8.0000   C.3       1 RES1  25.4924
  1501 25.49    0.5000  27.5000   8.5000   C.3       1 RES1  25.4924
  1502 25.49    0.5000  27.5000   9.0000   C.3       1 RES1  25.4924
  1503 25.49    0.5000  28.0000   8.0000   C.3       1 RES1  25.4924
  1504 25.49    0.5000  28.0000   8.5000   C.3       1 RES1  25.4924
  1505 25.49    0.5000  28.0000   9.0000   C.3       1 RES1  25.4924
  1506 25.75   -3.5000  28.5000  10.0000   C.3       1 RES1  25.7524
  1507 25.75   -3.5000  29.0000  10.0000   C.3       1 RES1  25.7524
  1508 25.75   -3.5000  29.5000  10.0000   C.3       1 RES1  25.7524
  1509 24.64   -1.5000  29.5000  12.0000   C.3       1 RES1  24.6438
  1510 24.64   -1.5000  30.0000  12.0000   C.3       1 RES1  24.6438
  1511 24.64   -1.5000  30.5000  12.0000   C.3       1 RES1  24.6438
  1512 25.04    0.0000  29.5000   9.5000   C.3       1 RES1  25.0370
  1513 24.37    2.0000  32.5000   8.0000   C.3       1 RES1  24.3740
  1514 24.23    0.0000  30.5000   6.0000   C.3       1 RES1  24.2272
  1515 25.17    0.0000  28.5000  10.5000   C.3       1 RES1  25.1674
  1516 25.17    0.5000  28.5000  10.5000   C.3       1 RES1  25.1674
  1517 25.17    0.5000  29.0000  10.5000   C.3       1 RES1  25.1674
  1518 25.17    0.5000  29.5000  10.5000   C.3       1 RES1  25.1674
  1519 25.17    1.0000  28.5000  10.5000   C.3       1 RES1  25.1674
  1520 25.17    1.0000  29.0000  10.5000   C.3       1 RES1  25.1674
  1521 25.17    1.0000  29.5000  10.5000   C.3       1 RES1  25.1674
  1522 24.22    0.5000  29.5000   6.0000   C.3       1 RES1  24.2248
  1523 24.22    1.0000  29.5000   6.0000   C.3       1 RES1  24.2248
  1524 24.22    1.5000  29.5000   6.0000   C.3       1 RES1  24.2248
  1525 23.58   -1.5000  32.0000  11.5000   C.3       1 RES1  23.5758
  1526 23.58   -1.5000  32.5000  11.5000   C.3       1 RES1  23.5758
  1527 24.19    0.5000  27.0000   7.5000   C.3       1 RES1  24.1878
  1528 24.19    0.5000  27.5000   7.5000   C.3       1 RES1  24.1878
  1529 24.19    0.5000  28.0000   7.5000   C.3       1 RES1  24.1878
  1530 24.38   -3.0000  28.5000   8.5000   C.3       1 RES1  24.3825
  1531 25.50    2.0000  26.5000   9.0000   C.3       1 RES1  25.4956
  1532 25.50    2.5000  26.5000   9.0000   C.3       1 RES1  25.4956
  1533 25.50    3.0000  26.5000   9.0000   C.3       1 RES1  25.4956
  1534 25.50    3.0000  27.0000   9.0000   C.3       1 RES1  25.4956
  1535 25.50    3.0000  27.5000   9.0000   C.3       1 RES1  25.4956
  1536 27.34   -0.5000  29.5000   9.0000   C.3       1 RES1  27.3428
  1537 25.15   -1.5000  31.5000  10.0000   C.3       1 RES1  25.1523
  1538 25.15   -1.5000  31.5000  10.5000   C.3       1 RES1  25.1523
  1539 25.15   -1.5000  31.5000  11.0000   C.3       1 RES1  25.1523
  1540 25.15   -1.0000  31.5000  10.0000   C.3       1 RES1  25.1523
  1541 25.15   -1.0000  31.5000  10.5000   C.3       1 RES1  25.1523
  1542 25.15   -1.0000  31.5000  11.0000   C.3       1 RES1  25.1523
  1543 24.28   -0.5000  28.0000  11.5000   C.3       1 RES1  24.2796
  1544 23.89    3.5000  24.5000   8.5000   C.3       1 RES1  23.8937
  1545 23.89    3.5000  24.5000   9.0000   C.3       1 RES1  23.8937
  1546 23.89    3.5000  24.5000   9.5000   C.3       1 RES1  23.8937
  1547 23.58   -1.0000  28.0000  11.0000   C.3       1 RES1  23.5808
  1548 25.39   -0.5000  28.0000  12.0000   C.3       1 RES1  25.3864
  1549 25.39   -0.5000  28.0000  12.5000   C.3       1 RES1  25.3864
  1550 25.39   -0.5000  28.0000  13.0000   C.3       1 RES1  25.3864
  1551 25.39    0.0000  28.0000  12.0000   C.3       1 RES1  25.3864
  1552 25.39    0.0000  28.0000  12.5000   C.3       1 RES1  25.3864
  1553 25.39    0.0000  28.0000  13.0000   C.3       1 RES1  25.3864
  1554 25.39    0.5000  28.0000  12.0000   C.3       1 RES1  25.3864
  1555 25.39    0.5000  28.0000  12.5000   C.3       1 RES1  25.3864
  1556 25.39    0.5000  28.0000  13.0000   C.3       1 RES1  25.3864
  1557 25.72   -0.5000  28.5000  12.0000   C.3       1 RES1  25.7222
  1558 25.72   -0.5000  29.0000  12.0000   C.3       1 RES1  25.7222
  1559 25.72   -0.5000  29.5000  12.0000   C.3       1 RES1  25.7222
  1560 25.72    0.5000  28.5000  13.0000   C.3       1 RES1  25.7222
  1561 25.72    0.5000  29.0000  13.0000   C.3       1 RES1  25.7222
  1562 25.72    0.5000  29.5000  13.0000   C.3       1 RES1  25.7222
  1563 25.15   -4.0000  28.0000  11.0000   C.3       1 RES1  25.1469
  1564 25.15   -4.0000  28.5000  11.0000   C.3       1 RES1  25.1469
  1565 25.15   -4.0000  29.0000  11.0000   C.3       1 RES1  25.1469
  1566 23.68   -4.0000  27.0000  10.5000   C.3       1 RES1  23.6795
  1567 23.68   -4.0000  27.0000  11.0000   C.3       1 RES1  23.6795
  1568 24.75    0.5000  30.0000  13.0000   C.3       1 RES1  24.7457
  1569 24.75    0.5000  30.0000  13.5000   C.3       1 RES1  24.7457
  1570 26.74    0.0000  31.5000   9.0000   C.3       1 RES1  26.7404
  1571 26.74    0.0000  32.0000   9.0000   C.3       1 RES1  26.7404
  1572 26.74    0.0000  32.5000   9.0000   C.3       1 RES1  26.7404
  1573 24.01   -3.0000  26.5000  13.0000   C.3       1 RES1  24.0122
  1574 28.77   -0.5000  32.5000   8.5000   C.3       1 RES1  28.7732
  1575 28.77    0.0000  32.5000   8.5000   C.3       1 RES1  28.7732
  1576 28.77    0.5000  32.5000   8.5000   C.3       1 RES1  28.7732
  1577 26.04    1.5000  27.0000   7.0000   C.3       1 RES1  26.0369
  1578 26.04    1.5000  27.5000   7.0000   C.3       1 RES1  26.0369
  1579 26.04    1.5000  28.0000   7.0000   C.3       1 RES1  26.0369
  1580 27.65    0.0000  28.5000  11.5000   C.3       1 RES1  27.6459
  1581 27.65    0.0000  28.5000  12.0000   C.3       1 RES1  27.6459
  1582 27.65    0.0000  28.5000  12.5000   C.3       1 RES1  27.6459
  1583 27.65    0.0000  29.0000  11.5000   C.3       1 RES1  27.6459
  1584 27.65    0.0000  29.0000  12.0000   C.3       1 RES1  27.6459
  1585 27.65    0.0000  29.0000  12.5000   C.3       1 RES1  27.6459
  1586 27.65    0.0000  29.5000  11.5000   C.3       1 RES1  27.6459
  1587 27.65    0.0000  29.5000  12.0000   C.3       1 RES1  27.6459
  1588 27.65    0.0000  29.5000  12.5000   C.3       1 RES1  27.6459
  1589 27.65    0.5000  28.5000  11.5000   C.3       1 RES1  27.6459
  1590 27.65    0.5000  28.5000  12.0000   C.3       1 RES1  27.6459
  1591 27.65    0.5000  28.5000  12.5000   C.3       1 RES1  27.6459
  1592 27.65    0.5000  29.0000  11.5000   C.3       1 RES1  27.6459
  1593 27.65    0.5000  29.0000  12.0000   C.3       1 RES1  27.6459
  1594 27.65    0.5000  29.0000  12.5000   C.3       1 RES1  27.6459
  1595 27.65    0.5000  29.5000  11.5000   C.3       1 RES1  27.6459
  1596 27.65    0.5000  29.5000  12.0000   C.3       1 RES1  27.6459
  1597 27.65    0.5000  29.5000  12.5000   C.3       1 RES1  27.6459
  1598 27.65    1.0000  28.5000  11.5000   C.3       1 RES1  27.6459
  1599 27.65    1.0000  28.5000  12.0000   C.3       1 RES1  27.6459
  1600 27.65    1.0000  28.5000  12.5000   C.3       1 RES1  27.6459
  1601 27.65    1.0000  29.0000  11.5000   C.3       1 RES1  27.6459
  1602 27.65    1.0000  29.0000  12.0000   C.3       1 RES1  27.6459
  1603 27.65    1.0000  29.0000  12.5000   C.3       1 RES1  27.6459
  1604 27.65    1.0000  29.5000  11.5000   C.3       1 RES1  27.6459
  1605 27.65    1.0000  29.5000  12.0000   C.3       1 RES1  27.6459
  1606 27.65    1.0000  29.5000  12.5000   C.3       1 RES1  27.6459
  1607 25.84    2.0000  29.5000   7.5000   C.3       1 RES1  25.8354
  1608 25.84    2.0000  29.5000   8.0000   C.3       1 RES1  25.8354
  1609 25.84    2.0000  29.5000   8.5000   C.3       1 RES1  25.8354
  1610 25.84    2.0000  30.0000   7.5000   C.3       1 RES1  25.8354
  1611 25.84    2.0000  30.0000   8.0000   C.3       1 RES1  25.8354
  1612 25.84    2.0000  30.0000   8.5000   C.3       1 RES1  25.8354
  1613 25.84    2.0000  30.5000   8.0000   C.3       1 RES1  25.8354
  1614 25.84    2.0000  30.5000   8.5000   C.3       1 RES1  25.8354
  1615 24.13   -1.5000  31.0000  12.0000   C.3       1 RES1  24.1329
  1616 24.75   -1.0000  29.0000  12.0000   C.3       1 RES1  24.7495
  1617 24.75   -1.0000  29.5000  12.0000   C.3       1 RES1  24.7495
  1618 24.75   -1.0000  30.0000  12.0000   C.3       1 RES1  24.7495
  1619 24.75   -0.5000  30.0000  12.0000   C.3       1 RES1  24.7495
  1620 29.73    0.0000  31.0000   8.5000   C.3       1 RES1  29.7292
  1621 29.73    0.5000  31.0000   8.5000   C.3       1 RES1  29.7292
  1622 29.73    1.0000  31.0000   8.5000   C.3       1 RES1  29.7292
  1623 23.66   -4.0000  30.5000   9.0000   C.3       1 RES1  23.6581
  1624 25.67   -5.5000  27.5000  11.5000   C.3       1 RES1  25.6716
  1625 25.67   -5.5000  27.5000  12.0000   C.3       1 RES1  25.6716
  1626 25.67   -5.0000  27.5000  11.5000   C.3       1 RES1  25.6716
  1627 25.67   -5.0000  27.5000  12.0000   C.3       1 RES1  25.6716
  1628 25.67   -4.5000  26.5000  11.5000   C.3       1 RES1  25.6716
  1629 25.67   -4.5000  26.5000  12.0000   C.3       1 RES1  25.6716
  1630 25.67   -4.5000  27.0000  11.5000   C.3       1 RES1  25.6716
  1631 25.67   -4.5000  27.0000  12.0000   C.3       1 RES1  25.6716
  1632 25.67   -4.5000  27.5000  11.5000   C.3       1 RES1  25.6716
  1633 25.67   -4.5000  27.5000  12.0000   C.3       1 RES1  25.6716
  1634 25.10    1.5000  31.5000   8.5000   C.3       1 RES1  25.1010
  1635 23.86   -1.0000  28.5000  14.0000   C.3       1 RES1  23.8623
  1636 23.86   -0.5000  28.5000  14.0000   C.3       1 RES1  23.8623
  1637 23.86    0.0000  28.5000  14.0000   C.3       1 RES1  23.8623
  1638 24.02   -5.0000  27.5000   9.5000   C.3       1 RES1  24.0237
  1639 24.02   -4.5000  27.5000   9.5000   C.3       1 RES1  24.0237
  1640 24.02   -4.0000  27.5000   9.5000   C.3       1 RES1  24.0237
  1641 24.02   -4.0000  27.5000  10.0000   C.3       1 RES1  24.0237
  1642 24.02   -4.0000  27.5000  10.5000   C.3       1 RES1  24.0237
  1643 24.23   -1.0000  29.0000  14.0000   C.3       1 RES1  24.2283
  1644 24.23   -1.0000  29.5000  14.0000   C.3       1 RES1  24.2283
  1645 24.23   -1.0000  30.0000  14.0000   C.3       1 RES1  24.2283
  1646 24.23   -0.5000  29.0000  14.0000   C.3       1 RES1  24.2283
  1647 24.23   -0.5000  29.5000  14.0000   C.3       1 RES1  24.2283
  1648 24.23   -0.5000  30.0000  14.0000   C.3       1 RES1  24.2283
  1649 24.23    0.0000  29.0000  14.0000   C.3       1 RES1  24.2283
  1650 24.23    0.0000  29.5000  14.0000   C.3       1 RES1  24.2283
  1651 24.23    0.0000  30.0000  14.0000   C.3       1 RES1  24.2283
  1652 26.02    0.0000  30.5000  11.0000   C.3       1 RES1  26.0244
  1653 26.02    0.0000  31.0000  11.0000   C.3       1 RES1  26.0244
  1654 23.98   -5.5000  30.0000   9.0000   C.3       1 RES1  23.9776
  1655 25.22   -3.0000  30.0000  10.0000   C.3       1 RES1  25.2216
  1656 25.22   -3.0000  30.5000  10.0000   C.3       1 RES1  25.2216
  1657 25.22   -3.0000  31.0000  10.0000   C.3       1 RES1  25.2216
  1658 25.22   -2.5000  30.0000  10.0000   C.3       1 RES1  25.2216
  1659 25.22   -2.5000  30.5000  10.0000   C.3       1 RES1  25.2216
  1660 25.22   -2.5000  31.0000  10.0000   C.3       1 RES1  25.2216
  1661 25.22   -2.0000  30.0000  10.0000   C.3       1 RES1  25.2216
  1662 25.22   -2.0000  30.5000  10.0000   C.3       1 RES1  25.2216
  1663 25.22   -2.0000  31.0000  10.0000   C.3       1 RES1  25.2216
  1664 24.66   -3.0000  27.0000  13.0000   C.3       1 RES1  24.6589
  1665 24.66   -3.0000  27.5000  13.0000   C.3       1 RES1  24.6589
  1666 24.66   -3.0000  28.0000  13.0000   C.3       1 RES1  24.6589
  1667 25.69    2.5000  27.0000   9.0000   C.3       1 RES1  25.6879
  1668 25.69    2.5000  27.5000   9.0000   C.3       1 RES1  25.6879
  1669 25.69    2.5000  28.0000   9.0000   C.3       1 RES1  25.6879
  1670 23.95    1.0000  30.0000  10.5000   C.3       1 RES1  23.9457
  1671 25.60   -1.0000  31.5000   7.0000   C.3       1 RES1  25.6001
  1672 25.60   -1.0000  32.0000   7.0000   C.3       1 RES1  25.6001
  1673 25.60   -1.0000  32.5000   7.0000   C.3       1 RES1  25.6001
  1674 30.29    1.5000  31.0000   8.0000   C.3       1 RES1  30.2930
  1675 30.29    1.5000  31.5000   8.0000   C.3       1 RES1  30.2930
  1676 30.29    1.5000  32.0000   8.0000   C.3       1 RES1  30.2930
  1677 24.06   -3.0000  29.5000   7.5000   C.3       1 RES1  24.0614
  1678 24.06   -3.0000  30.0000   7.5000   C.3       1 RES1  24.0614
  1679 24.06   -3.0000  30.5000   7.5000   C.3       1 RES1  24.0614
  1680 26.91    2.0000  30.5000   7.5000   C.3       1 RES1  26.9116
  1681 29.45    1.5000  30.5000   7.5000   C.3       1 RES1  29.4510
  1682 24.36   -3.5000  28.0000   8.5000   C.3       1 RES1  24.3623
  1683 24.36   -3.0000  28.0000   8.5000   C.3       1 RES1  24.3623
  1684 23.68   -1.0000  27.5000  11.5000   C.3       1 RES1  23.6831
  1685 23.99   -4.5000  26.0000  10.5000   C.3       1 RES1  23.9906
  1686 25.54   -5.5000  28.0000  11.0000   C.3       1 RES1  25.5377
  1687 25.54   -5.5000  28.5000  11.0000   C.3       1 RES1  25.5377
  1688 25.54   -5.5000  29.0000  11.0000   C.3       1 RES1  25.5377
  1689 25.54   -5.0000  28.0000  11.0000   C.3       1 RES1  25.5377
  1690 25.54   -5.0000  28.5000  11.0000   C.3       1 RES1  25.5377
  1691 25.54   -5.0000  29.0000  11.0000   C.3       1 RES1  25.5377
  1692 25.54   -4.5000  28.0000  11.0000   C.3       1 RES1  25.5377
  1693 25.54   -4.5000  28.5000  11.0000   C.3       1 RES1  25.5377
  1694 25.54   -4.5000  29.0000  11.0000   C.3       1 RES1  25.5377
  1695 25.56   -4.5000  26.0000  11.0000   C.3       1 RES1  25.5563
  1696 25.56   -4.5000  26.0000  11.5000   C.3       1 RES1  25.5563
  1697 25.56   -4.5000  26.0000  12.0000   C.3       1 RES1  25.5563
  1698 24.09    1.5000  24.5000  10.0000   C.3       1 RES1  24.0862
  1699 24.09    1.5000  25.0000  10.0000   C.3       1 RES1  24.0862
  1700 24.09    1.5000  25.5000  10.0000   C.3       1 RES1  24.0862
  1701 23.59   -0.5000  33.0000   7.0000   C.3       1 RES1  23.5881
  1702 24.31    0.0000  28.0000  11.0000   C.3       1 RES1  24.3094
  1703 28.47    2.5000  26.5000   7.0000   C.3       1 RES1  28.4708
  1704 28.47    2.5000  27.0000   7.0000   C.3       1 RES1  28.4708
  1705 28.47    2.5000  27.5000   7.0000   C.3       1 RES1  28.4708
  1706 28.47    3.0000  26.5000   7.0000   C.3       1 RES1  28.4708
  1707 28.47    3.0000  27.0000   7.0000   C.3       1 RES1  28.4708
  1708 28.47    3.0000  27.5000   7.0000   C.3       1 RES1  28.4708
  1709 28.47    3.5000  26.5000   7.0000   C.3       1 RES1  28.4708
  1710 28.47    3.5000  27.0000   7.0000   C.3       1 RES1  28.4708
  1711 28.47    3.5000  27.5000   7.0000   C.3       1 RES1  28.4708
  1712 26.62    0.5000  30.0000   6.5000   C.3       1 RES1  26.6230
  1713 24.61    1.5000  28.0000  11.5000   C.3       1 RES1  24.6125
  1714 24.61    1.5000  28.0000  12.0000   C.3       1 RES1  24.6125
  1715 24.61    1.5000  28.0000  12.5000   C.3       1 RES1  24.6125
  1716 23.95   -1.0000  27.0000  12.0000   C.3       1 RES1  23.9527
  1717 23.95   -1.0000  27.0000  12.5000   C.3       1 RES1  23.9527
  1718 23.95   -1.0000  27.0000  13.0000   C.3       1 RES1  23.9527
  1719 27.82    1.0000  32.0000   8.5000   C.3       1 RES1  27.8174
  1720 28.49    2.5000  26.5000   7.5000   C.3       1 RES1  28.4929
  1721 28.49    2.5000  26.5000   8.0000   C.3       1 RES1  28.4929
  1722 28.49    2.5000  26.5000   8.5000   C.3       1 RES1  28.4929
  1723 28.49    2.5000  27.0000   7.5000   C.3       1 RES1  28.4929
  1724 28.49    2.5000  27.0000   8.0000   C.3       1 RES1  28.4929
  1725 28.49    2.5000  27.0000   8.5000   C.3       1 RES1  28.4929
  1726 28.49    2.5000  27.5000   7.5000   C.3       1 RES1  28.4929
  1727 28.49    2.5000  27.5000   8.0000   C.3       1 RES1  28.4929
  1728 28.49    2.5000  27.5000   8.5000   C.3       1 RES1  28.4929
  1729 28.49    3.0000  26.5000   7.5000   C.3       1 RES1  28.4929
  1730 28.49    3.0000  26.5000   8.0000   C.3       1 RES1  28.4929
  1731 28.49    3.0000  26.5000   8.5000   C.3       1 RES1  28.4929
  1732 28.49    3.0000  27.0000   7.5000   C.3       1 RES1  28.4929
  1733 28.49    3.0000  27.0000   8.0000   C.3       1 RES1  28.4929
  1734 28.49    3.0000  27.0000   8.5000   C.3       1 RES1  28.4929
  1735 28.49    3.0000  27.5000   7.5000   C.3       1 RES1  28.4929
  1736 28.49    3.0000  27.5000   8.0000   C.3       1 RES1  28.4929
  1737 28.49    3.0000  27.5000   8.5000   C.3       1 RES1  28.4929
  1738 28.49    3.5000  26.5000   7.5000   C.3       1 RES1  28.4929
  1739 28.49    3.5000  26.5000   8.0000   C.3       1 RES1  28.4929
  1740 28.49    3.5000  26.5000   8.5000   C.3       1 RES1  28.4929
  1741 28.49    3.5000  27.0000   7.5000   C.3       1 RES1  28.4929
  1742 28.49    3.5000  27.0000   8.0000   C.3       1 RES1  28.4929
  1743 28.49    3.5000  27.0000   8.5000   C.3       1 RES1  28.4929
  1744 28.49    3.5000  27.5000   7.5000   C.3       1 RES1  28.4929
  1745 28.49    3.5000  27.5000   8.0000   C.3       1 RES1  28.4929
  1746 28.49    3.5000  27.5000   8.5000   C.3       1 RES1  28.4929
  1747 24.51   -1.0000  28.5000   9.0000   C.3       1 RES1  24.5110
  1748 24.51   -1.0000  28.5000   9.5000   C.3       1 RES1  24.5110
  1749 24.51   -1.0000  28.5000  10.0000   C.3       1 RES1  24.5110
  1750 24.51   -1.0000  29.0000   9.0000   C.3       1 RES1  24.5110
  1751 24.51   -1.0000  29.0000   9.5000   C.3       1 RES1  24.5110
  1752 24.51   -0.5000  28.5000   9.0000   C.3       1 RES1  24.5110
  1753 24.51   -0.5000  28.5000   9.5000   C.3       1 RES1  24.5110
  1754 24.51   -0.5000  28.5000  10.0000   C.3       1 RES1  24.5110
  1755 24.51   -0.5000  29.0000   9.5000   C.3       1 RES1  24.5110
  1756 24.42    1.5000  30.0000  11.5000   C.3       1 RES1  24.4212
  1757 24.42    1.5000  30.0000  12.0000   C.3       1 RES1  24.4212
  1758 24.42    1.5000  30.0000  12.5000   C.3       1 RES1  24.4212
  1759 47.93   -1.5000  24.0000   8.5000   C.3       1 RES1  47.9323
  1760 47.93   -1.5000  24.0000   9.0000   C.3       1 RES1  47.9323
  1761 47.93   -1.5000  24.0000   9.5000   C.3       1 RES1  47.9323
  1762 47.93   -1.5000  24.5000   8.5000   C.3       1 RES1  47.9323
  1763 47.93   -1.5000  24.5000   9.0000   C.3       1 RES1  47.9323
  1764 47.93   -1.5000  24.5000   9.5000   C.3       1 RES1  47.9323
  1765 47.93   -1.5000  25.0000   8.5000   C.3       1 RES1  47.9323
  1766 47.93   -1.5000  25.0000   9.0000   C.3       1 RES1  47.9323
  1767 47.93   -1.5000  25.0000   9.5000   C.3       1 RES1  47.9323
  1768 47.93   -1.0000  24.0000   8.5000   C.3       1 RES1  47.9323
  1769 47.93   -1.0000  24.0000   9.0000   C.3       1 RES1  47.9323
  1770 47.93   -1.0000  24.0000   9.5000   C.3       1 RES1  47.9323
  1771 47.93   -1.0000  24.5000   8.5000   C.3       1 RES1  47.9323
  1772 47.93   -1.0000  24.5000   9.0000   C.3       1 RES1  47.9323
  1773 47.93   -1.0000  24.5000   9.5000   C.3       1 RES1  47.9323
  1774 47.93   -1.0000  25.0000   8.5000   C.3       1 RES1  47.9323
  1775 47.93   -1.0000  25.0000   9.0000   C.3       1 RES1  47.9323
  1776 47.93   -1.0000  25.0000   9.5000   C.3       1 RES1  47.9323
  1777 47.93   -0.5000  24.0000   8.5000   C.3       1 RES1  47.9323
  1778 47.93   -0.5000  24.0000   9.0000   C.3       1 RES1  47.9323
  1779 47.93   -0.5000  24.0000   9.5000   C.3       1 RES1  47.9323
  1780 47.93   -0.5000  24.5000   8.5000   C.3       1 RES1  47.9323
  1781 47.93   -0.5000  24.5000   9.0000   C.3       1 RES1  47.9323
  1782 47.93   -0.5000  24.5000   9.5000   C.3       1 RES1  47.9323
  1783 47.93   -0.5000  25.0000   8.5000   C.3       1 RES1  47.9323
  1784 47.93   -0.5000  25.0000   9.0000   C.3       1 RES1  47.9323
  1785 47.93   -0.5000  25.0000   9.5000   C.3       1 RES1  47.9323
  1786 24.43    2.5000  25.5000   8.0000   C.3       1 RES1  24.4310
  1787 24.43    3.0000  25.5000   8.0000   C.3       1 RES1  24.4310
  1788 24.43    3.5000  25.5000   8.0000   C.3       1 RES1  24.4310
  1789 24.43    3.5000  26.5000   9.0000   C.3       1 RES1  24.4310
  1790 25.44    1.0000  27.0000   7.5000   C.3       1 RES1  25.4360
  1791 25.44    1.0000  27.5000   7.5000   C.3       1 RES1  25.4360
  1792 25.44    1.0000  28.0000   7.5000   C.3       1 RES1  25.4360
  1793 24.31   -1.5000  28.5000  13.5000   C.3       1 RES1  24.3118
  1794 24.31   -1.5000  29.0000  13.5000   C.3       1 RES1  24.3118
  1795 24.31   -1.5000  29.5000  12.5000   C.3       1 RES1  24.3118
  1796 24.31   -1.5000  29.5000  13.0000   C.3       1 RES1  24.3118
  1797 24.31   -1.5000  29.5000  13.5000   C.3       1 RES1  24.3118
  1798 24.61    2.0000  26.0000   7.5000   C.3       1 RES1  24.6106
  1799 24.61    2.0000  26.0000   8.0000   C.3       1 RES1  24.6106
  1800 24.64    2.0000  27.0000   6.5000   C.3       1 RES1  24.6420
  1801 24.64    2.0000  27.5000   6.5000   C.3       1 RES1  24.6420
  1802 24.64    2.0000  28.0000   6.5000   C.3       1 RES1  24.6420
  1803 23.94    0.0000  33.0000   7.0000   C.3       1 RES1  23.9392
  1804 23.94    0.5000  33.0000   7.0000   C.3       1 RES1  23.9392
  1805 23.94    1.0000  33.0000   7.0000   C.3       1 RES1  23.9392
  1806 23.94    1.0000  33.0000   7.5000   C.3       1 RES1  23.9392
  1807 23.94    1.0000  33.0000   8.0000   C.3       1 RES1  23.9392
  1808 23.73   -3.5000  33.0000  10.0000   C.3       1 RES1  23.7324
  1809 26.41    1.0000  31.0000   9.0000   C.3       1 RES1  26.4054
  1810 28.61    1.5000  32.5000   8.0000   C.3       1 RES1  28.6057
  1811 24.10    1.5000  26.5000   7.0000   C.3       1 RES1  24.1028
  1812 25.01   -1.0000  32.0000  11.0000   C.3       1 RES1  25.0073
  1813 26.79    4.0000  26.5000   7.0000   C.3       1 RES1  26.7886
  1814 26.79    4.0000  26.5000   7.5000   C.3       1 RES1  26.7886
  1815 26.79    4.0000  26.5000   8.0000   C.3       1 RES1  26.7886
  1816 26.79    4.0000  27.0000   7.0000   C.3       1 RES1  26.7886
  1817 26.79    4.0000  27.0000   7.5000   C.3       1 RES1  26.7886
  1818 26.79    4.0000  27.0000   8.0000   C.3       1 RES1  26.7886
  1819 26.79    4.0000  27.5000   7.0000   C.3       1 RES1  26.7886
  1820 26.79    4.0000  27.5000   7.5000   C.3       1 RES1  26.7886
  1821 26.79    4.0000  27.5000   8.0000   C.3       1 RES1  26.7886
@<TRIPOS>SUBSTRUCTURE
     1 RES1        1 GROUP             0 ****  ****    0  
