@<TRIPOS>MOLECULE
13.8250650051
    70    72     1     0     0
SMALL
USER_CHARGES
****
Generated from the CSD

@<TRIPOS>ATOM
     1 C        3.6268  22.5241  10.9409   C.ar      1 RES1  23.3443
     2 N        3.7116  22.7643   9.6120   N.ar      1 RES1  24.7769
     3 C        2.7243  23.3938   8.9402   C.ar      1 RES1  25.3539
     4 C        1.6090  23.7891   9.6740   C.ar      1 RES1  25.4643
     5 C        1.5527  23.5346  11.0348   C.ar      1 RES1  24.5771
     6 N        2.5563  22.9058  11.6696   N.ar      1 RES1  22.2110
     7 N        0.3785  24.0239  11.4679   N.ar      1 RES1  22.4505
     8 C       -0.2930  24.5588  10.4276   C.ar      1 RES1  23.9662
     9 N        0.4717  24.4183   9.3244   N.ar      1 RES1  25.2038
    10 C       -0.0635  23.9252  12.7522   C.3       1 RES1  22.2897
    11 C       -0.5206  25.3007  13.2888   C.3       1 RES1  25.0938
    12 C       -2.0278  25.1092  13.5339   C.3       1 RES1  22.9223
    13 C       -2.0983  23.5946  13.7985   C.3       1 RES1  20.3442
    14 O       -1.2334  23.0953  12.7754   O.3       1 RES1  21.3862
    15 C       -3.5167  23.0126  13.6325   C.3       1 RES1  22.9512
    16 O       -3.7227  21.9984  14.6207   O.3       1 RES1  15.1645
    17 P       -4.1776  22.3573  16.1119   P.3       1 RES1  22.1639
    18 O       -5.3528  21.5209  16.4850   O.2       1 RES1  20.3240
    19 O       -2.9738  22.0408  17.1169   O.3       1 RES1  16.7328
    20 O       -4.5526  23.9106  16.2139   O.3       1 RES1  22.0776
    21 P       -5.9796  24.1171  16.9101   P.3       1 RES1  22.1639
    22 O       -6.1342  25.5541  17.2720   O.2       1 RES1  19.2486
    23 O       -6.0610  23.2315  18.2403   O.3       1 RES1   3.4726
    24 O       -7.1436  23.6967  15.8944   O.3       1 RES1  22.0776
    25 P       -7.2161  24.7052  14.6531   P.3       1 RES1  21.3171
    26 O       -8.0554  24.1077  13.5769   O.2       1 RES1  21.4731
    27 O       -5.7468  24.9775  14.0815   O.3       1 RES1  19.5721
    28 O       -7.8747  26.0862  15.1210   O.3       1 RES1  19.5721
    29 O       -2.4824  25.8966  14.6408   O.3       1 RES1  28.7233
    30 O        0.1430  25.5674  14.5301   O.3       1 RES1  23.3596
    31 N        2.8104  23.6314   7.6138   N.pl3     1 RES1   0.0000
    32 H1       4.4424  22.0097  11.4362   H         1 RES1   0.0000
    33 H2      -1.2737  25.0195  10.4662   H         1 RES1   0.0000
    34 H3       0.7055  23.5033  13.4172   H         1 RES1   0.0000
    35 H4      -0.3285  26.1153  12.5729   H         1 RES1   0.0000
    36 H5      -2.5731  25.3523  12.6095   H         1 RES1   0.0000
    37 H6      -1.6843  23.3684  14.7932   H         1 RES1   0.0000
    38 H7      -3.6459  22.5915  12.6246   H         1 RES1   0.0000
    39 H8      -4.2525  23.8161  13.7860   H         1 RES1   0.0000
    40 H9      -3.2250  21.3331  17.6987   H         1 RES1   0.0000
    41 H10     -6.9639  22.9844  18.4017   H         1 RES1   0.0000
    42 H11     -5.7909  25.1002  13.1406   H         1 RES1   0.0000
    43 H12     -7.4297  26.4014  15.8989   H         1 RES1   0.0000
    44 H13     -1.8523  26.5758  14.8510   H         1 RES1   0.0000
    45 H14     -0.3120  26.2521  15.0071   H         1 RES1   0.0000
    46 H15      3.6434  23.3314   7.0870   H         1 RES1   0.0000
    47 H16      2.0414  24.1141   7.1276   H         1 RES1   0.0000
    48 ****     4.5269  22.4679   9.1146   Du        1 RES1  20.9948
    49 ****     2.5117  22.7259  12.6523   Du        1 RES1  17.2081
    50 ****     0.2338  24.7288   8.4041   Du        1 RES1  23.9662
    51 ****    -1.6959  23.1332  11.8895   Du        1 RES1  21.5516
    52 ****    -0.9768  22.1501  12.9772   Du        1 RES1  20.7642
    53 ****    -6.2424  21.9499  16.6415   Du        1 RES1  22.1639
    54 ****    -5.2520  20.5304  16.5789   Du        1 RES1  18.5145
    55 ****    -2.7658  22.8573  17.6556   Du        1 RES1  19.9202
    56 ****    -2.1650  21.7715  16.5941   Du        1 RES1  19.2550
    57 ****    -5.5228  25.9685  17.9462   Du        1 RES1  16.4942
    58 ****    -6.8493  26.1043  16.8407   Du        1 RES1  18.3415
    59 ****    -5.7169  23.7617  19.0152   Du        1 RES1  17.7403
    60 ****    -5.5052  22.4079  18.1269   Du        1 RES1  18.5145
    61 ****    -9.0513  24.1893  13.6160   Du        1 RES1  18.2507
    62 ****    -7.6228  23.6250  12.8154   Du        1 RES1  22.7260
    63 ****    -5.1583  24.1960  14.2886   Du        1 RES1  22.1639
    64 ****    -5.3704  25.8002  14.5076   Du        1 RES1  21.3171
    65 ****    -8.8427  25.9414  15.3261   Du        1 RES1  17.8555
    66 ****    -7.7866  26.7624  14.3895   Du        1 RES1  18.9814
    67 ****    -2.6043  25.3041  15.4371   Du        1 RES1  20.4257
    68 ****    -3.3563  26.3214  14.4045   Du        1 RES1  25.0938
    69 ****     1.0811  25.8610  14.3461   Du        1 RES1  22.2896
    70 ****     0.1569  24.7339  15.0824   Du        1 RES1  18.9472
@<TRIPOS>BOND
     1     1     2   ar
     2     2     3   ar
     3     3     4   ar
     4     4     5   ar
     5     5     6   ar
     6     1     6   ar
     7     5     7   ar
     8     7     8   ar
     9     8     9   ar
    10     4     9   ar
    11     7    10    1
    12    10    11    1
    13    11    12    1
    14    12    13    1
    15    13    14    1
    16    10    14    1
    17    13    15    1
    18    15    16    1
    19    16    17    1
    20    17    18    2
    21    17    19    1
    22    17    20    1
    23    20    21    1
    24    21    22    2
    25    21    23    1
    26    21    24    1
    27    24    25    1
    28    25    26    2
    29    25    27    1
    30    25    28    1
    31    12    29    1
    32    11    30    1
    33     3    31    1
    34     1    32    1
    35     8    33    1
    36    10    34    1
    37    11    35    1
    38    12    36    1
    39    13    37    1
    40    15    38    1
    41    15    39    1
    42    19    40    1
    43    23    41    1
    44    27    42    1
    45    28    43    1
    46    29    44    1
    47    30    45    1
    48    31    46    1
    49    31    47    1
    50     2    48    1
    51     6    49    1
    52     9    50    1
    53    14    51    1
    54    14    52    1
    55    18    53    1
    56    18    54    1
    57    19    55    1
    58    19    56    1
    59    22    57    1
    60    22    58    1
    61    23    59    1
    62    23    60    1
    63    26    61    1
    64    26    62    1
    65    27    63    1
    66    27    64    1
    67    28    65    1
    68    28    66    1
    69    29    67    1
    70    29    68    1
    71    30    69    1
    72    30    70    1
@<TRIPOS>SUBSTRUCTURE
     1 RES1        1 GROUP             0 ****  ****    0  
@<TRIPOS>MOLECULE
13.3521643235
    70    72     1     0     0
SMALL
USER_CHARGES
****
Generated from the CSD

@<TRIPOS>ATOM
     1 C        2.7373  20.6106  11.0860   C.ar      1 RES1  16.7895
     2 N        3.0217  20.7851   9.7746   N.ar      1 RES1  18.9477
     3 C        2.6013  21.8739   9.0962   C.ar      1 RES1  23.3462
     4 C        1.8600  22.8160   9.8041   C.ar      1 RES1  24.7769
     5 C        1.5892  22.6131  11.1477   C.ar      1 RES1  23.3443
     6 N        2.0256  21.5163  11.7900   N.ar      1 RES1  20.1738
     7 N        0.8701  23.6716  11.5579   N.ar      1 RES1  22.4505
     8 C        0.6790  24.5107  10.5194   C.ar      1 RES1  25.2038
     9 N        1.2966  23.9833   9.4414   N.ar      1 RES1  25.4643
    10 C        0.3735  23.8161  12.8176   C.3       1 RES1  20.7464
    11 C       -0.1881  25.2400  13.0325   C.3       1 RES1  22.2897
    12 C       -1.6917  25.0038  13.2605   C.3       1 RES1  22.9223
    13 C       -1.6866  23.5776  13.8393   C.3       1 RES1  20.3442
    14 O       -0.7460  22.9332  12.9767   O.3       1 RES1  21.3862
    15 C       -3.0592  22.8800  13.7522   C.3       1 RES1  22.1639
    16 O       -3.2141  22.0142  14.8810   O.3       1 RES1  15.1645
    17 P       -4.1780  22.3885  16.1018   P.3       1 RES1  22.1639
    18 O       -5.3529  21.4722  16.1027   O.2       1 RES1  20.3240
    19 O       -3.3772  22.2089  17.4751   O.3       1 RES1  16.7328
    20 O       -4.6650  23.9083  15.9724   O.3       1 RES1  22.0776
    21 P       -5.9253  24.1947  16.9174   P.3       1 RES1  22.1639
    22 O       -5.8844  25.6186  17.3544   O.2       1 RES1  19.2486
    23 O       -5.8549  23.2502  18.2070   O.3       1 RES1   5.3265
    24 O       -7.2807  23.9258  16.1089   O.3       1 RES1  22.0776
    25 P       -7.3792  24.8707  14.8203   P.3       1 RES1  20.3632
    26 O       -6.1148  24.7760  14.0379   O.2       1 RES1  22.1639
    27 O       -7.6045  26.3895  15.2702   O.3       1 RES1  19.5721
    28 O       -8.5985  24.3971  13.8990   O.3       1 RES1  17.7407
    29 O       -2.2439  25.9743  14.1578   O.3       1 RES1  28.7233
    30 O        0.3985  25.8059  14.2106   O.3       1 RES1  23.3596
    31 N        2.8851  22.0455   7.7872   N.pl3     1 RES1   0.0000
    32 H1       3.0913  19.7170  11.5871   H         1 RES1   0.0000
    33 H2       0.1269  25.4435  10.5420   H         1 RES1   0.0000
    34 H3       1.1328  23.5961  13.5835   H         1 RES1   0.0000
    35 H4      -0.0095  25.8965  12.1665   H         1 RES1   0.0000
    36 H5      -2.2052  25.0097  12.2873   H         1 RES1   0.0000
    37 H6      -1.3084  23.5942  14.8731   H         1 RES1   0.0000
    38 H7      -3.1412  22.3041  12.8188   H         1 RES1   0.0000
    39 H8      -3.8502  23.6444  13.7766   H         1 RES1   0.0000
    40 H9      -3.7900  21.5300  17.9957   H         1 RES1   0.0000
    41 H10     -6.4001  22.4846  18.0692   H         1 RES1   0.0000
    42 H11     -7.4351  26.4723  16.2012   H         1 RES1   0.0000
    43 H12     -9.3694  24.9127  14.1048   H         1 RES1   0.0000
    44 H13     -1.5556  26.4075  14.6489   H         1 RES1   0.0000
    45 H14     -0.1040  26.5588  14.5005   H         1 RES1   0.0000
    46 H15      3.4348  21.3375   7.2794   H         1 RES1   0.0000
    47 H16      2.5511  22.8865   7.2953   H         1 RES1   0.0000
    48 ****     3.5571  20.0896   9.2956   Du        1 RES1  10.2736
    49 ****     1.8290  21.3753  12.7603   Du        1 RES1  15.8623
    50 ****     1.3298  24.3905   8.5287   Du        1 RES1  25.4643
    51 ****    -1.1668  22.7527  12.0877   Du        1 RES1  21.5516
    52 ****    -0.4449  22.0710  13.3842   Du        1 RES1  20.7642
    53 ****    -5.6016  20.9772  15.2702   Du        1 RES1  18.5002
    54 ****    -5.8928  21.3523  16.9359   Du        1 RES1  20.3240
    55 ****    -3.3877  23.0707  17.9822   Du        1 RES1  18.5002
    56 ****    -2.4317  21.9495  17.2782   Du        1 RES1  19.1987
    57 ****    -6.5726  25.9662  17.9912   Du        1 RES1  15.5828
    58 ****    -5.1686  26.2267  17.0109   Du        1 RES1  18.1695
    59 ****    -6.1826  23.7531  19.0068   Du        1 RES1  17.7403
    60 ****    -4.9091  22.9629  18.3585   Du        1 RES1  18.0449
    61 ****    -6.1486  24.6632  13.0448   Du        1 RES1  23.3959
    62 ****    -5.2324  24.8254  14.5058   Du        1 RES1  22.1639
    63 ****    -8.5486  26.6576  15.0780   Du        1 RES1  20.3015
    64 ****    -6.9796  26.9835  14.7636   Du        1 RES1  18.5576
    65 ****    -8.7889  23.4303  14.0689   Du        1 RES1  18.2507
    66 ****    -8.3588  24.5255  12.9367   Du        1 RES1  21.4731
    67 ****    -2.8639  25.5169  14.7951   Du        1 RES1  22.9223
    68 ****    -2.7510  26.6569  13.6314   Du        1 RES1  25.0938
    69 ****     1.3349  26.0925  14.0078   Du        1 RES1  23.2343
    70 ****     0.4103  25.1180  14.9363   Du        1 RES1  18.0778
@<TRIPOS>BOND
     1     1     2   ar
     2     2     3   ar
     3     3     4   ar
     4     4     5   ar
     5     5     6   ar
     6     1     6   ar
     7     5     7   ar
     8     7     8   ar
     9     8     9   ar
    10     4     9   ar
    11     7    10    1
    12    10    11    1
    13    11    12    1
    14    12    13    1
    15    13    14    1
    16    10    14    1
    17    13    15    1
    18    15    16    1
    19    16    17    1
    20    17    18    2
    21    17    19    1
    22    17    20    1
    23    20    21    1
    24    21    22    2
    25    21    23    1
    26    21    24    1
    27    24    25    1
    28    25    26    2
    29    25    27    1
    30    25    28    1
    31    12    29    1
    32    11    30    1
    33     3    31    1
    34     1    32    1
    35     8    33    1
    36    10    34    1
    37    11    35    1
    38    12    36    1
    39    13    37    1
    40    15    38    1
    41    15    39    1
    42    19    40    1
    43    23    41    1
    44    27    42    1
    45    28    43    1
    46    29    44    1
    47    30    45    1
    48    31    46    1
    49    31    47    1
    50     2    48    1
    51     6    49    1
    52     9    50    1
    53    14    51    1
    54    14    52    1
    55    18    53    1
    56    18    54    1
    57    19    55    1
    58    19    56    1
    59    22    57    1
    60    22    58    1
    61    23    59    1
    62    23    60    1
    63    26    61    1
    64    26    62    1
    65    27    63    1
    66    27    64    1
    67    28    65    1
    68    28    66    1
    69    29    67    1
    70    29    68    1
    71    30    69    1
    72    30    70    1
@<TRIPOS>SUBSTRUCTURE
     1 RES1        1 GROUP             0 ****  ****    0  
@<TRIPOS>MOLECULE
13.3155244669
    70    72     1     0     0
SMALL
USER_CHARGES
****
Generated from the CSD

@<TRIPOS>ATOM
     1 C        0.6486  19.1075  10.7806   C.ar      1 RES1  16.4379
     2 N        1.0326  18.5525   9.6077   N.ar      1 RES1  10.2937
     3 C        1.7885  19.2285   8.7167   C.ar      1 RES1  11.7524
     4 C        2.1602  20.5268   9.0551   C.ar      1 RES1  16.8594
     5 C        1.7570  21.0667  10.2657   C.ar      1 RES1  20.6190
     6 N        1.0049  20.3624  11.1284   N.ar      1 RES1  19.2957
     7 N        2.2593  22.3120  10.3163   N.ar      1 RES1  24.7769
     8 C        2.9454  22.5629   9.1826   C.ar      1 RES1  24.7769
     9 N        2.8879  21.4575   8.4102   N.ar      1 RES1  21.8173
    10 C        2.0408  23.1831  11.3400   C.3       1 RES1  22.4505
    11 C        2.4559  24.6186  10.9450   C.3       1 RES1  24.5771
    12 C        1.1294  25.3984  10.9751   C.3       1 RES1  24.5771
    13 C        0.3263  24.5841  12.0050   C.3       1 RES1  21.6459
    14 O        0.6312  23.2477  11.5984   O.3       1 RES1  22.4505
    15 C       -1.1935  24.8343  11.9280   C.3       1 RES1  24.7556
    16 O       -1.8807  23.5981  12.1452   O.3       1 RES1  22.3970
    17 P       -2.1614  23.0396  13.6178   P.3       1 RES1  20.7642
    18 O       -3.6093  22.7158  13.7559   O.2       1 RES1  22.1639
    19 O       -1.3065  21.7064  13.8439   O.3       1 RES1  21.5193
    20 O       -1.7343  24.1293  14.7103   O.3       1 RES1  22.8941
    21 P       -3.0165  24.7484  15.4426   P.3       1 RES1  22.1639
    22 O       -4.0390  25.0898  14.4140   O.2       1 RES1  22.4784
    23 O       -2.5972  26.0799  16.2247   O.3       1 RES1  28.7233
    24 O       -3.6270  23.6769  16.4635   O.3       1 RES1  15.1645
    25 P       -5.2041  23.8863  16.6425   P.3       1 RES1  22.1639
    26 O       -5.6811  23.0901  17.8080   O.2       1 RES1  18.5002
    27 O       -5.9743  23.4018  15.3264   O.3       1 RES1  11.3379
    28 O       -5.5139  25.4335  16.9069   O.3       1 RES1  16.2534
    29 O        1.3320  26.7610  11.3679   O.3       1 RES1  26.1099
    30 O        3.3488  25.1413  11.9359   O.3       1 RES1  26.1099
    31 N        2.1695  18.6732   7.5463   N.pl3     1 RES1   0.0000
    32 H1       0.0365  18.5279  11.4620   H         1 RES1   0.0000
    33 H2       3.4531  23.4874   8.9316   H         1 RES1   0.0000
    34 H3       2.5734  22.8802  12.2545   H         1 RES1   0.0000
    35 H4       2.9263  24.6606   9.9501   H         1 RES1   0.0000
    36 H5       0.6508  25.3260   9.9869   H         1 RES1   0.0000
    37 H6       0.7146  24.7737  13.0176   H         1 RES1   0.0000
    38 H7      -1.4668  25.2527  10.9481   H         1 RES1   0.0000
    39 H8      -1.4786  25.5455  12.7175   H         1 RES1   0.0000
    40 H9      -1.5086  21.3418  14.6975   H         1 RES1   0.0000
    41 H10     -1.9182  26.5324  15.7385   H         1 RES1   0.0000
    42 H11     -6.1271  24.1465  14.7569   H         1 RES1   0.0000
    43 H12     -4.9835  25.9661  16.3259   H         1 RES1   0.0000
    44 H13      2.1115  26.8434  11.9048   H         1 RES1   0.0000
    45 H14      2.9000  25.7763  12.4825   H         1 RES1   0.0000
    46 H15      1.8847  17.7111   7.3126   H         1 RES1   0.0000
    47 H16      2.7465  19.2130   6.8856   H         1 RES1   0.0000
    48 ****     0.7490  17.6173   9.3956   Du        1 RES1   1.4736
    49 ****     0.7177  20.7559  12.0017   Du        1 RES1  19.2957
    50 ****     3.3134  21.3486   7.5119   Du        1 RES1  21.8167
    51 ****     0.1218  23.0193  10.7687   Du        1 RES1  23.1040
    52 ****     0.3882  22.6062  12.3260   Du        1 RES1  18.1072
    53 ****    -3.9148  22.0851  14.4692   Du        1 RES1  22.1639
    54 ****    -4.2755  23.1292  13.1352   Du        1 RES1  22.9512
    55 ****    -0.3315  21.9236  13.7965   Du        1 RES1  20.3314
    56 ****    -1.5344  21.0398  13.1342   Du        1 RES1  20.7642
    57 ****    -3.7883  25.1067  13.4461   Du        1 RES1  25.2191
    58 ****    -4.9759  25.3021  14.6916   Du        1 RES1  21.3171
    59 ****    -2.2531  25.8389  17.1322   Du        1 RES1  16.9663
    60 ****    -3.3943  26.6765  16.3181   Du        1 RES1  16.5684
    61 ****    -5.9927  22.1490  17.6767   Du        1 RES1  19.9202
    62 ****    -5.6897  23.4968  18.7215   Du        1 RES1  17.7715
    63 ****    -6.8502  22.9937  15.5839   Du        1 RES1  20.3632
    64 ****    -5.4188  22.7231  14.8460   Du        1 RES1  22.1639
    65 ****    -5.2974  25.6594  17.8567   Du        1 RES1  18.0953
    66 ****    -6.4821  25.6141  16.7336   Du        1 RES1  20.4522
    67 ****     0.5388  27.0733  11.8907   Du        1 RES1  25.3864
    68 ****     1.4356  27.3266  10.5498   Du        1 RES1  27.6459
    69 ****     4.1220  25.5845  11.4823   Du        1 RES1  23.5619
    70 ****     3.6827  24.3916  12.5074   Du        1 RES1  18.6925
@<TRIPOS>BOND
     1     1     2   ar
     2     2     3   ar
     3     3     4   ar
     4     4     5   ar
     5     5     6   ar
     6     1     6   ar
     7     5     7   ar
     8     7     8   ar
     9     8     9   ar
    10     4     9   ar
    11     7    10    1
    12    10    11    1
    13    11    12    1
    14    12    13    1
    15    13    14    1
    16    10    14    1
    17    13    15    1
    18    15    16    1
    19    16    17    1
    20    17    18    2
    21    17    19    1
    22    17    20    1
    23    20    21    1
    24    21    22    2
    25    21    23    1
    26    21    24    1
    27    24    25    1
    28    25    26    2
    29    25    27    1
    30    25    28    1
    31    12    29    1
    32    11    30    1
    33     3    31    1
    34     1    32    1
    35     8    33    1
    36    10    34    1
    37    11    35    1
    38    12    36    1
    39    13    37    1
    40    15    38    1
    41    15    39    1
    42    19    40    1
    43    23    41    1
    44    27    42    1
    45    28    43    1
    46    29    44    1
    47    30    45    1
    48    31    46    1
    49    31    47    1
    50     2    48    1
    51     6    49    1
    52     9    50    1
    53    14    51    1
    54    14    52    1
    55    18    53    1
    56    18    54    1
    57    19    55    1
    58    19    56    1
    59    22    57    1
    60    22    58    1
    61    23    59    1
    62    23    60    1
    63    26    61    1
    64    26    62    1
    65    27    63    1
    66    27    64    1
    67    28    65    1
    68    28    66    1
    69    29    67    1
    70    29    68    1
    71    30    69    1
    72    30    70    1
@<TRIPOS>SUBSTRUCTURE
     1 RES1        1 GROUP             0 ****  ****    0  
@<TRIPOS>MOLECULE
13.1208370163
    70    72     1     0     0
SMALL
USER_CHARGES
****
Generated from the CSD

@<TRIPOS>ATOM
     1 C       -1.4345  21.3396  10.9622   C.ar      1 RES1  21.5075
     2 N       -1.1756  20.1181  10.4407   N.ar      1 RES1  19.2957
     3 C        0.0773  19.6177  10.3937   C.ar      1 RES1  19.2957
     4 C        1.0983  20.4129  10.9072   C.ar      1 RES1  19.2957
     5 C        0.8022  21.6571  11.4402   C.ar      1 RES1  22.4505
     6 N       -0.4584  22.1217  11.4703   N.ar      1 RES1  22.4505
     7 N        1.9672  22.1843  11.8530   N.ar      1 RES1  20.1738
     8 C        2.9676  21.3200  11.5861   C.ar      1 RES1  19.2073
     9 N        2.4273  20.2261  11.0092   N.ar      1 RES1  14.0194
    10 C        2.0938  23.4263  12.3969   C.3       1 RES1  18.4160
    11 C        2.2756  24.4974  11.2975   C.3       1 RES1  22.2110
    12 C        1.0160  25.3711  11.4337   C.3       1 RES1  22.0485
    13 C        0.6737  25.1737  12.9212   C.3       1 RES1  20.7464
    14 O        0.8701  23.7648  13.0648   O.3       1 RES1  20.5751
    15 C       -0.7814  25.5500  13.2665   C.3       1 RES1  25.0938
    16 O       -1.5221  24.3541  13.5291   O.3       1 RES1  22.8941
    17 P       -2.2020  24.0813  14.9513   P.3       1 RES1  20.1322
    18 O       -1.2251  23.3948  15.8426   O.2       1 RES1  18.6626
    19 O       -2.6148  25.4791  15.6109   O.3       1 RES1  28.7233
    20 O       -3.5118  23.1783  14.7708   O.3       1 RES1  18.0535
    21 P       -4.1806  22.8392  16.1855   P.3       1 RES1  22.1639
    22 O       -3.1648  22.1758  17.0504   O.2       1 RES1  22.1639
    23 O       -5.4146  21.8434  15.9709   O.3       1 RES1   2.9510
    24 O       -4.6761  24.1898  16.8879   O.3       1 RES1  22.0776
    25 P       -5.1918  23.9081  18.3772   P.3       1 RES1  16.4474
    26 O       -6.1771  22.7907  18.3580   O.2       1 RES1  19.6577
    27 O       -5.8952  25.2169  18.9706   O.3       1 RES1  14.2696
    28 O       -3.9550  23.4959  19.3048   O.3       1 RES1  13.6371
    29 O        1.2865  26.7362  11.0938   O.3       1 RES1  26.1099
    30 O        3.4414  25.2780  11.5872   O.3       1 RES1  26.1099
    31 N        0.3337  18.3990   9.8718   N.pl3     1 RES1  15.8388
    32 H1      -2.4561  21.7019  10.9726   H         1 RES1   0.0000
    33 H2       4.0204  21.4735  11.7950   H         1 RES1   0.0000
    34 H3       2.9324  23.4771  13.1081   H         1 RES1   0.0000
    35 H4       2.3542  24.0567  10.2913   H         1 RES1   0.0000
    36 H5       0.2176  24.9457  10.8073   H         1 RES1   0.0000
    37 H6       1.3916  25.7256  13.5473   H         1 RES1   0.0000
    38 H7      -1.2431  26.1075  12.4383   H         1 RES1   0.0000
    39 H8      -0.7830  26.1774  14.1704   H         1 RES1   0.0000
    40 H9      -1.9391  26.1235  15.4359   H         1 RES1   0.0000
    41 H10     -6.1085  22.2947  15.5048   H         1 RES1   0.0000
    42 H11     -5.2530  25.7360  19.4401   H         1 RES1   0.0000
    43 H12     -3.8479  24.1407  19.9941   H         1 RES1   0.0000
    44 H13      1.8318  27.1453  11.7555   H         1 RES1   0.0000
    45 H14      3.3177  25.7703  12.3908   H         1 RES1   0.0000
    46 H15     -0.4346  17.8246   9.4961   H         1 RES1   0.0000
    47 H16      1.2998  18.0429   9.8493   H         1 RES1   0.0000
    48 ****    -1.9320  19.5719  10.0808   Du        1 RES1  19.2957
    49 ****    -0.6673  23.0197  11.8576   Du        1 RES1  21.5516
    50 ****     2.9289  19.4149  10.7086   Du        1 RES1   9.3871
    51 ****     0.1068  23.2701  12.6492   Du        1 RES1  22.6453
    52 ****     0.9335  23.5265  14.0339   Du        1 RES1  19.3837
    53 ****    -1.4965  22.5722  16.3424   Du        1 RES1  18.2850
    54 ****    -0.2981  23.7566  15.9411   Du        1 RES1  16.8974
    55 ****    -2.7179  25.3641  16.5989   Du        1 RES1  20.2456
    56 ****    -3.4810  25.7897  15.2193   Du        1 RES1  22.9223
    57 ****    -2.8241  21.2659  16.8137   Du        1 RES1  20.3240
    58 ****    -2.8238  22.6404  17.8676   Du        1 RES1  18.5145
    59 ****    -5.7546  21.5375  16.8602   Du        1 RES1  20.3240
    60 ****    -5.1154  21.0518  15.4381   Du        1 RES1  18.5002
    61 ****    -6.1938  22.1519  17.5888   Du        1 RES1  19.9202
    62 ****    -6.8219  22.6795  19.1143   Du        1 RES1  19.6577
    63 ****    -6.6276  24.9473  19.5958   Du        1 RES1  15.4731
    64 ****    -6.2782  25.7580  18.2219   Du        1 RES1  15.5828
    65 ****    -3.1223  23.4569  18.7524   Du        1 RES1  17.7715
    66 ****    -4.1276  22.5987  19.7114   Du        1 RES1  18.2389
    67 ****     0.4224  27.2350  11.0262   Du        1 RES1  25.3864
    68 ****     1.7594  26.7677  10.2133   Du        1 RES1  26.0179
    69 ****     3.6086  25.9135  10.8335   Du        1 RES1  24.5771
    70 ****     4.2283  24.6696  11.6910   Du        1 RES1  20.1183
@<TRIPOS>BOND
     1     1     2   ar
     2     2     3   ar
     3     3     4   ar
     4     4     5   ar
     5     5     6   ar
     6     1     6   ar
     7     5     7   ar
     8     7     8   ar
     9     8     9   ar
    10     4     9   ar
    11     7    10    1
    12    10    11    1
    13    11    12    1
    14    12    13    1
    15    13    14    1
    16    10    14    1
    17    13    15    1
    18    15    16    1
    19    16    17    1
    20    17    18    2
    21    17    19    1
    22    17    20    1
    23    20    21    1
    24    21    22    2
    25    21    23    1
    26    21    24    1
    27    24    25    1
    28    25    26    2
    29    25    27    1
    30    25    28    1
    31    12    29    1
    32    11    30    1
    33     3    31    1
    34     1    32    1
    35     8    33    1
    36    10    34    1
    37    11    35    1
    38    12    36    1
    39    13    37    1
    40    15    38    1
    41    15    39    1
    42    19    40    1
    43    23    41    1
    44    27    42    1
    45    28    43    1
    46    29    44    1
    47    30    45    1
    48    31    46    1
    49    31    47    1
    50     2    48    1
    51     6    49    1
    52     9    50    1
    53    14    51    1
    54    14    52    1
    55    18    53    1
    56    18    54    1
    57    19    55    1
    58    19    56    1
    59    22    57    1
    60    22    58    1
    61    23    59    1
    62    23    60    1
    63    26    61    1
    64    26    62    1
    65    27    63    1
    66    27    64    1
    67    28    65    1
    68    28    66    1
    69    29    67    1
    70    29    68    1
    71    30    69    1
    72    30    70    1
@<TRIPOS>SUBSTRUCTURE
     1 RES1        1 GROUP             0 ****  ****    0  
@<TRIPOS>MOLECULE
12.9826374551
    70    72     1     0     0
SMALL
USER_CHARGES
****
Generated from the CSD

@<TRIPOS>ATOM
     1 C        3.8983  19.1157  10.7330   C.ar      1 RES1   5.2014
     2 N        4.3520  18.6454   9.5481   N.ar      1 RES1   2.7831
     3 C        4.3305  19.4010   8.4297   C.ar      1 RES1   3.7370
     4 C        3.8209  20.6915   8.5450   C.ar      1 RES1  13.3653
     5 C        3.3689  21.1478   9.7727   C.ar      1 RES1  18.6161
     6 N        3.4069  20.3662  10.8651   N.ar      1 RES1  13.5646
     7 N        2.9437  22.4079   9.5803   N.ar      1 RES1  24.7769
     8 C        3.1062  22.7407   8.2834   C.ar      1 RES1  24.7769
     9 N        3.6536  21.6823   7.6495   N.ar      1 RES1  21.8167
    10 C        2.3839  23.1821  10.5508   C.3       1 RES1  24.7769
    11 C        3.1016  24.5471  10.6543   C.3       1 RES1  25.4643
    12 C        2.0135  25.5578  10.2507   C.3       1 RES1  25.4643
    13 C        0.7360  24.8002  10.6545   C.3       1 RES1  25.2038
    14 O        1.0325  23.4855  10.1772   O.3       1 RES1  25.3539
    15 C       -0.5359  25.3439   9.9727   C.3       1 RES1  24.9244
    16 O       -1.6550  24.5459  10.3706   O.3       1 RES1  12.0610
    17 P       -1.6059  23.6188  11.6734   P.3       1 RES1  22.7847
    18 O       -0.9457  22.3264  11.3357   O.2       1 RES1  22.4505
    19 O       -0.7545  24.3567  12.8092   O.3       1 RES1  26.5754
    20 O       -3.0886  23.3542  12.2167   O.3       1 RES1  22.1506
    21 P       -3.0671  22.8515  13.7367   P.3       1 RES1  22.0667
    22 O       -1.6800  22.4337  14.0850   O.2       1 RES1  20.3442
    23 O       -4.0474  21.5976  13.9012   O.3       1 RES1  17.3969
    24 O       -3.5234  24.0405  14.7068   O.3       1 RES1  18.0535
    25 P       -2.3255  24.4893  15.6696   P.3       1 RES1  20.4521
    26 O       -1.1651  24.9298  14.8455   O.2       1 RES1  22.9223
    27 O       -1.8763  23.2630  16.5939   O.3       1 RES1  22.1575
    28 O       -2.8037  25.7080  16.5894   O.3       1 RES1  28.7233
    29 O        2.1730  26.8025  10.9416   O.3       1 RES1  26.1099
    30 O        3.4933  24.7725  12.0137   O.3       1 RES1  26.1099
    31 N        4.7826  18.9293   7.2480   N.pl3     1 RES1   0.0000
    32 H1       3.9300  18.4697  11.6029   H         1 RES1   0.0000
    33 H2       2.8437  23.6883   7.8269   H         1 RES1   0.0000
    34 H3       2.3956  22.6804  11.5305   H         1 RES1   0.0000
    35 H4       3.9783  24.6115   9.9909   H         1 RES1   0.0000
    36 H5       2.0385  25.6917   9.1588   H         1 RES1   0.0000
    37 H6       0.6342  24.7951  11.7507   H         1 RES1   0.0000
    38 H7      -0.4261  25.3238   8.8784   H         1 RES1   0.0000
    39 H8      -0.7013  26.3809  10.3009   H         1 RES1   0.0000
    40 H9      -0.2886  25.0917  12.4282   H         1 RES1   0.0000
    41 H10     -3.9556  21.0229  13.1505   H         1 RES1   0.0000
    42 H11     -1.7368  23.5705  17.4818   H         1 RES1   0.0000
    43 H12     -2.1700  26.4135  16.5342   H         1 RES1   0.0000
    44 H13      2.6752  26.6820  11.7389   H         1 RES1   0.0000
    45 H14      3.1222  25.5871  12.3334   H         1 RES1   0.0000
    46 H15      5.1561  17.9715   7.1815   H         1 RES1   0.0000
    47 H16      4.7540  19.5288   6.4110   H         1 RES1   0.0000
    48 ****     4.7125  17.7139   9.4997   Du        1 RES1   0.6648
    49 ****     3.0810  20.7007  11.7494   Du        1 RES1  15.3804
    50 ****     3.8939  21.6413   6.6797   Du        1 RES1  16.8355
    51 ****     0.9389  23.4550   9.1820   Du        1 RES1  25.3539
    52 ****     0.4076  22.8236  10.5912   Du        1 RES1  24.7769
    53 ****    -1.0896  21.9111  10.4375   Du        1 RES1  22.6936
    54 ****    -0.3587  21.8743  12.0074   Du        1 RES1  20.7642
    55 ****    -0.0978  23.7141  13.2039   Du        1 RES1  22.2897
    56 ****    -1.3695  24.6868  13.5253   Du        1 RES1  20.7464
    57 ****    -1.4815  21.4735  14.2818   Du        1 RES1  19.9046
    58 ****    -0.9475  23.1134  14.1219   Du        1 RES1  20.3442
    59 ****    -4.9925  21.9189  13.9613   Du        1 RES1  22.1639
    60 ****    -3.8118  21.0974  14.7345   Du        1 RES1  19.9046
    61 ****    -0.2831  25.1112  15.2804   Du        1 RES1  20.4257
    62 ****    -1.2683  25.0441  13.8574   Du        1 RES1  22.9223
    63 ****    -1.0271  22.8718  16.2393   Du        1 RES1  18.6626
    64 ****    -2.5917  22.5643  16.5917   Du        1 RES1  20.4521
    65 ****    -2.8785  25.4005  17.5380   Du        1 RES1  19.2486
    66 ****    -3.6946  26.0345  16.2737   Du        1 RES1  17.3860
    67 ****     1.2711  27.1670  11.1736   Du        1 RES1  25.3864
    68 ****     2.6509  27.4491  10.3471   Du        1 RES1  26.6496
    69 ****     4.4908  24.8217  12.0657   Du        1 RES1  21.4406
    70 ****     3.1668  24.0164  12.5808   Du        1 RES1  18.8326
@<TRIPOS>BOND
     1     1     2   ar
     2     2     3   ar
     3     3     4   ar
     4     4     5   ar
     5     5     6   ar
     6     1     6   ar
     7     5     7   ar
     8     7     8   ar
     9     8     9   ar
    10     4     9   ar
    11     7    10    1
    12    10    11    1
    13    11    12    1
    14    12    13    1
    15    13    14    1
    16    10    14    1
    17    13    15    1
    18    15    16    1
    19    16    17    1
    20    17    18    2
    21    17    19    1
    22    17    20    1
    23    20    21    1
    24    21    22    2
    25    21    23    1
    26    21    24    1
    27    24    25    1
    28    25    26    2
    29    25    27    1
    30    25    28    1
    31    12    29    1
    32    11    30    1
    33     3    31    1
    34     1    32    1
    35     8    33    1
    36    10    34    1
    37    11    35    1
    38    12    36    1
    39    13    37    1
    40    15    38    1
    41    15    39    1
    42    19    40    1
    43    23    41    1
    44    27    42    1
    45    28    43    1
    46    29    44    1
    47    30    45    1
    48    31    46    1
    49    31    47    1
    50     2    48    1
    51     6    49    1
    52     9    50    1
    53    14    51    1
    54    14    52    1
    55    18    53    1
    56    18    54    1
    57    19    55    1
    58    19    56    1
    59    22    57    1
    60    22    58    1
    61    23    59    1
    62    23    60    1
    63    26    61    1
    64    26    62    1
    65    27    63    1
    66    27    64    1
    67    28    65    1
    68    28    66    1
    69    29    67    1
    70    29    68    1
    71    30    69    1
    72    30    70    1
@<TRIPOS>SUBSTRUCTURE
     1 RES1        1 GROUP             0 ****  ****    0  
@<TRIPOS>MOLECULE
12.9335667449
    70    72     1     0     0
SMALL
USER_CHARGES
****
Generated from the CSD

@<TRIPOS>ATOM
     1 C        2.9021  21.2805   8.8085   C.ar      1 RES1  21.8173
     2 N        3.8976  20.3923   9.0344   N.ar      1 RES1  13.3653
     3 C        4.7028  20.4882  10.1136   C.ar      1 RES1  11.5820
     4 C        4.4661  21.5432  10.9906   C.ar      1 RES1  16.3880
     5 C        3.4356  22.4339  10.7364   C.ar      1 RES1  24.7769
     6 N        2.6537  22.3056   9.6511   N.ar      1 RES1  24.7769
     7 N        3.4466  23.3289  11.7387   N.ar      1 RES1  20.1499
     8 C        4.4475  23.0309  12.5922   C.ar      1 RES1  14.6521
     9 N        5.0697  21.9253  12.1313   N.ar      1 RES1  12.6710
    10 C        2.6040  24.3956  11.8199   C.3       1 RES1  18.8899
    11 C        2.4691  25.1013  10.4515   C.3       1 RES1  25.4643
    12 C        0.9884  24.8969  10.0850   C.3       1 RES1  25.4643
    13 C        0.3488  24.7735  11.4795   C.3       1 RES1  24.9244
    14 O        1.2883  23.9214  12.1394   O.3       1 RES1  20.1738
    15 C       -1.0457  24.1155  11.4539   C.3       1 RES1  22.7847
    16 O       -1.9143  24.8303  12.3385   O.3       1 RES1  22.8941
    17 P       -1.6074  24.9490  13.9041   P.3       1 RES1  22.9223
    18 O       -0.1499  24.7468  14.1388   O.2       1 RES1  19.6098
    19 O       -2.0176  26.4107  14.4086   O.3       1 RES1  28.7233
    20 O       -2.4524  23.8570  14.7148   O.3       1 RES1  22.8941
    21 P       -3.2101  24.5191  15.9602   P.3       1 RES1  22.1639
    22 O       -4.3190  25.3730  15.4492   O.2       1 RES1  20.7565
    23 O       -2.1877  25.4302  16.7878   O.3       1 RES1  23.3324
    24 O       -3.8128  23.3715  16.8998   O.3       1 RES1  19.2011
    25 P       -5.4132  23.4134  16.9048   P.3       1 RES1  22.1639
    26 O       -5.8739  24.6994  17.4996   O.2       1 RES1  19.9202
    27 O       -5.9907  22.1987  17.7713   O.3       1 RES1   3.4726
    28 O       -5.9579  23.3091  15.4040   O.3       1 RES1  11.3379
    29 O        0.4795  26.0008   9.3270   O.3       1 RES1  24.4949
    30 O        2.7409  26.4987  10.6122   O.3       1 RES1  26.1099
    31 N        5.6965  19.6015  10.3365   N.pl3     1 RES1   0.0000
    32 H1       2.2850  21.1663   7.9247   H         1 RES1   0.0000
    33 H2       4.7101  23.5800  13.4893   H         1 RES1   0.0000
    34 H3       2.9338  25.1194  12.5809   H         1 RES1   0.0000
    35 H4       3.1368  24.6699   9.6893   H         1 RES1   0.0000
    36 H5       0.8837  23.9462   9.5409   H         1 RES1   0.0000
    37 H6       0.3194  25.7602  11.9668   H         1 RES1   0.0000
    38 H7      -0.9805  23.0603  11.7575   H         1 RES1   0.0000
    39 H8      -1.4492  24.1739  10.4320   H         1 RES1   0.0000
    40 H9      -2.7417  26.3429  15.0197   H         1 RES1   0.0000
    41 H10     -1.8128  26.0876  16.2137   H         1 RES1   0.0000
    42 H11     -6.8224  21.9181  17.4080   H         1 RES1   0.0000
    43 H12     -6.1925  24.1750  15.0918   H         1 RES1   0.0000
    44 H13      0.8872  26.8135   9.6023   H         1 RES1   0.0000
    45 H14      2.7536  26.7285  11.5344   H         1 RES1   0.0000
    46 H15      5.8571  18.8271   9.6763   H         1 RES1   0.0000
    47 H16      6.2952  19.6996  11.1687   H         1 RES1   0.0000
    48 ****     4.0405  19.6454   8.3850   Du        1 RES1   5.4230
    49 ****     1.9101  22.9502   9.4729   Du        1 RES1  24.7769
    50 ****     5.8467  21.4680  12.5638   Du        1 RES1   8.3840
    51 ****     1.1782  22.9804  11.8197   Du        1 RES1  20.1738
    52 ****     1.1441  23.9565  13.1284   Du        1 RES1  20.5751
    53 ****     0.3697  24.1261  13.5516   Du        1 RES1  20.7464
    54 ****     0.3086  25.2317  14.8835   Du        1 RES1  18.0778
    55 ****    -2.2932  26.9684  13.6256   Du        1 RES1  25.0938
    56 ****    -1.2362  26.8379  14.8635   Du        1 RES1  22.9223
    57 ****    -5.2693  25.0946  15.5883   Du        1 RES1  22.1639
    58 ****    -4.1129  26.2246  14.9671   Du        1 RES1  21.7569
    59 ****    -1.4575  24.8576  17.1605   Du        1 RES1  18.2850
    60 ****    -2.6737  25.8801  17.5371   Du        1 RES1  16.9663
    61 ****    -6.8390  24.8273  17.7282   Du        1 RES1  17.0093
    62 ****    -5.2180  25.4347  17.6704   Du        1 RES1  19.2486
    63 ****    -6.1235  22.4969  18.7165   Du        1 RES1  19.6577
    64 ****    -5.3435  21.4367  17.7499   Du        1 RES1  18.6308
    65 ****    -6.7635  22.7171  15.3821   Du        1 RES1  19.0332
    66 ****    -5.2456  22.9246  14.8168   Du        1 RES1  22.1639
    67 ****    -0.5088  26.0660   9.4652   Du        1 RES1  25.4924
    68 ****     0.6712  25.8493   8.3573   Du        1 RES1  27.2741
    69 ****     2.0297  27.0284  10.1500   Du        1 RES1  26.0179
    70 ****     3.6304  26.7104  10.2072   Du        1 RES1  25.6879
@<TRIPOS>BOND
     1     1     2   ar
     2     2     3   ar
     3     3     4   ar
     4     4     5   ar
     5     5     6   ar
     6     1     6   ar
     7     5     7   ar
     8     7     8   ar
     9     8     9   ar
    10     4     9   ar
    11     7    10    1
    12    10    11    1
    13    11    12    1
    14    12    13    1
    15    13    14    1
    16    10    14    1
    17    13    15    1
    18    15    16    1
    19    16    17    1
    20    17    18    2
    21    17    19    1
    22    17    20    1
    23    20    21    1
    24    21    22    2
    25    21    23    1
    26    21    24    1
    27    24    25    1
    28    25    26    2
    29    25    27    1
    30    25    28    1
    31    12    29    1
    32    11    30    1
    33     3    31    1
    34     1    32    1
    35     8    33    1
    36    10    34    1
    37    11    35    1
    38    12    36    1
    39    13    37    1
    40    15    38    1
    41    15    39    1
    42    19    40    1
    43    23    41    1
    44    27    42    1
    45    28    43    1
    46    29    44    1
    47    30    45    1
    48    31    46    1
    49    31    47    1
    50     2    48    1
    51     6    49    1
    52     9    50    1
    53    14    51    1
    54    14    52    1
    55    18    53    1
    56    18    54    1
    57    19    55    1
    58    19    56    1
    59    22    57    1
    60    22    58    1
    61    23    59    1
    62    23    60    1
    63    26    61    1
    64    26    62    1
    65    27    63    1
    66    27    64    1
    67    28    65    1
    68    28    66    1
    69    29    67    1
    70    29    68    1
    71    30    69    1
    72    30    70    1
@<TRIPOS>SUBSTRUCTURE
     1 RES1        1 GROUP             0 ****  ****    0  
@<TRIPOS>MOLECULE
12.9239644163
    70    72     1     0     0
SMALL
USER_CHARGES
****
Generated from the CSD

@<TRIPOS>ATOM
     1 C       -0.6007  19.4852  10.9801   C.ar      1 RES1  19.2957
     2 N       -0.4546  18.6539   9.9225   N.ar      1 RES1  10.2937
     3 C        0.5370  18.8194   9.0216   C.ar      1 RES1  16.4379
     4 C        1.4091  19.8853   9.2259   C.ar      1 RES1  17.1234
     5 C        1.2382  20.7166  10.3212   C.ar      1 RES1  19.2957
     6 N        0.2389  20.5197  11.1978   N.ar      1 RES1  19.2957
     7 N        2.2139  21.6384  10.2587   N.ar      1 RES1  22.9349
     8 C        2.9704  21.4140   9.1649   C.ar      1 RES1  21.8173
     9 N        2.4754  20.3282   8.5343   N.ar      1 RES1  16.7895
    10 C        2.3540  22.6639  11.1436   C.3       1 RES1  23.3443
    11 C        2.4600  24.0198  10.4091   C.3       1 RES1  25.4643
    12 C        1.1985  24.7752  10.8631   C.3       1 RES1  24.5771
    13 C        0.9422  24.1318  12.2376   C.3       1 RES1  20.5751
    14 O        1.1650  22.7509  11.9416   O.3       1 RES1  20.1738
    15 C       -0.4963  24.3446  12.7511   C.3       1 RES1  22.6909
    16 O       -0.5046  25.4389  13.6732   O.3       1 RES1  22.8941
    17 P        0.0096  25.2734  15.1791   P.3       1 RES1  21.4097
    18 O        1.4644  24.9514  15.1720   O.2       1 RES1  18.0778
    19 O       -0.2146  26.6498  15.9630   O.3       1 RES1  19.1161
    20 O       -0.8082  24.1102  15.9151   O.3       1 RES1  18.3146
    21 P       -2.3362  24.5312  16.1420   P.3       1 RES1  20.4521
    22 O       -3.0361  24.5269  14.8266   O.2       1 RES1  22.1639
    23 O       -2.4004  26.0044  16.7633   O.3       1 RES1  23.3324
    24 O       -3.0458  23.4856  17.1249   O.3       1 RES1  15.1645
    25 P       -4.1310  22.6059  16.3428   P.3       1 RES1  22.1639
    26 O       -3.9644  22.8022  14.8754   O.2       1 RES1  22.1639
    27 O       -5.6076  23.0526  16.7670   O.3       1 RES1   3.1340
    28 O       -3.9180  21.0583  16.6888   O.3       1 RES1  16.7328
    29 O        1.4314  26.1868  10.9360   O.3       1 RES1  26.1099
    30 O        3.6297  24.7118  10.8622   O.3       1 RES1  23.5332
    31 N        0.6803  17.9894   7.9662   N.pl3     1 RES1  12.5540
    32 H1      -1.4162  19.3162  11.6740   H         1 RES1   0.0000
    33 H2       3.8245  22.0001   8.8447   H         1 RES1   0.0000
    34 H3       3.2302  22.5242  11.7950   H         1 RES1   0.0000
    35 H4       2.4883  23.9028   9.3143   H         1 RES1   0.0000
    36 H5       0.3721  24.5334  10.1779   H         1 RES1   0.0000
    37 H6       1.6865  24.4920  12.9645   H         1 RES1   0.0000
    38 H7      -0.8703  23.4335  13.2409   H         1 RES1   0.0000
    39 H8      -1.1469  24.5904  11.8986   H         1 RES1   0.0000
    40 H9      -0.1710  26.4918  16.8988   H         1 RES1   0.0000
    41 H10     -1.7259  26.5444  16.3686   H         1 RES1   0.0000
    42 H11     -5.7077  22.9625  17.7073   H         1 RES1   0.0000
    43 H12     -4.7567  20.6614  16.8924   H         1 RES1   0.0000
    44 H13      1.7440  26.4314  11.7991   H         1 RES1   0.0000
    45 H14      3.4652  25.1221  11.7036   H         1 RES1   0.0000
    46 H15      0.0252  17.2059   7.8309   H         1 RES1   0.0000
    47 H16      1.4467  18.1401   7.2948   H         1 RES1   0.0000
    48 ****    -1.0979  17.8973   9.8052   Du        1 RES1   4.5272
    49 ****     0.1207  21.1215  11.9877   Du        1 RES1  19.4772
    50 ****     2.8389  19.9220   7.6959   Du        1 RES1  10.2464
    51 ****     0.3865  22.3810  11.4346   Du        1 RES1  22.4505
    52 ****     1.2855  22.2355  12.7900   Du        1 RES1  16.8438
    53 ****     1.7678  24.0117  15.0140   Du        1 RES1  17.5709
    54 ****     2.1374  25.6750  15.3252   Du        1 RES1  12.4833
    55 ****    -1.1121  27.0240  15.7296   Du        1 RES1  20.4257
    56 ****     0.4968  27.3021  15.7016   Du        1 RES1  16.3242
    57 ****    -3.6728  25.2629  14.5967   Du        1 RES1  25.0938
    58 ****    -2.8691  23.7881  14.1738   Du        1 RES1  22.1639
    59 ****    -2.2531  25.9561  17.7512   Du        1 RES1  16.0634
    60 ****    -3.2981  26.4048  16.5793   Du        1 RES1  16.5684
    61 ****    -4.1858  22.0596  14.2432   Du        1 RES1  22.1639
    62 ****    -3.6312  23.6765  14.5225   Du        1 RES1  22.1639
    63 ****    -6.2775  22.4726  16.3034   Du        1 RES1  20.8922
    64 ****    -5.7552  24.0065  16.5059   Du        1 RES1  22.1639
    65 ****    -3.3088  20.9736  17.4772   Du        1 RES1  18.8949
    66 ****    -3.5115  20.5937  15.9021   Du        1 RES1  18.5145
    67 ****     0.5769  26.6707  10.7471   Du        1 RES1  25.2038
    68 ****     2.1168  26.4420  10.2541   Du        1 RES1  25.4643
    69 ****     3.8762  25.4148  10.1950   Du        1 RES1  25.4956
    70 ****     4.3832  24.0608  10.9543   Du        1 RES1  22.7075
@<TRIPOS>BOND
     1     1     2   ar
     2     2     3   ar
     3     3     4   ar
     4     4     5   ar
     5     5     6   ar
     6     1     6   ar
     7     5     7   ar
     8     7     8   ar
     9     8     9   ar
    10     4     9   ar
    11     7    10    1
    12    10    11    1
    13    11    12    1
    14    12    13    1
    15    13    14    1
    16    10    14    1
    17    13    15    1
    18    15    16    1
    19    16    17    1
    20    17    18    2
    21    17    19    1
    22    17    20    1
    23    20    21    1
    24    21    22    2
    25    21    23    1
    26    21    24    1
    27    24    25    1
    28    25    26    2
    29    25    27    1
    30    25    28    1
    31    12    29    1
    32    11    30    1
    33     3    31    1
    34     1    32    1
    35     8    33    1
    36    10    34    1
    37    11    35    1
    38    12    36    1
    39    13    37    1
    40    15    38    1
    41    15    39    1
    42    19    40    1
    43    23    41    1
    44    27    42    1
    45    28    43    1
    46    29    44    1
    47    30    45    1
    48    31    46    1
    49    31    47    1
    50     2    48    1
    51     6    49    1
    52     9    50    1
    53    14    51    1
    54    14    52    1
    55    18    53    1
    56    18    54    1
    57    19    55    1
    58    19    56    1
    59    22    57    1
    60    22    58    1
    61    23    59    1
    62    23    60    1
    63    26    61    1
    64    26    62    1
    65    27    63    1
    66    27    64    1
    67    28    65    1
    68    28    66    1
    69    29    67    1
    70    29    68    1
    71    30    69    1
    72    30    70    1
@<TRIPOS>SUBSTRUCTURE
     1 RES1        1 GROUP             0 ****  ****    0  
@<TRIPOS>MOLECULE
12.7376753201
    70    72     1     0     0
SMALL
USER_CHARGES
****
Generated from the CSD

@<TRIPOS>ATOM
     1 C        0.3057  23.4641   9.5954   C.ar      1 RES1  25.2038
     2 N        1.3569  24.3023   9.7485   N.ar      1 RES1  25.4643
     3 C        1.4979  25.0698  10.8501   C.ar      1 RES1  24.5771
     4 C        0.5133  24.9630  11.8286   C.ar      1 RES1  23.6958
     5 C       -0.5487  24.0918  11.6468   C.ar      1 RES1  22.7847
     6 N       -0.6549  23.3427  10.5362   N.ar      1 RES1  23.9662
     7 N       -1.3247  24.2003  12.7385   N.ar      1 RES1  22.7847
     8 C       -0.7889  25.1096  13.5782   C.ar      1 RES1  22.9223
     9 N        0.3478  25.5728  13.0170   N.ar      1 RES1  21.7975
    10 C       -2.4962  23.5284  12.9131   C.3       1 RES1  22.6909
    11 C       -2.5600  22.8798  14.3146   C.3       1 RES1  20.4521
    12 C       -3.7306  23.6099  14.9966   C.3       1 RES1  22.1639
    13 C       -4.5849  24.0086  13.7800   C.3       1 RES1  22.1639
    14 O       -3.5783  24.4695  12.8753   O.3       1 RES1  23.3959
    15 C       -5.5894  25.1382  14.0850   C.3       1 RES1  22.1639
    16 O       -6.2409  24.8591  15.3282   O.3       1 RES1  17.8805
    17 P       -7.7975  25.1562  15.5470   P.3       1 RES1  20.3632
    18 O       -8.4010  25.6037  14.2603   O.2       1 RES1  20.3015
    19 O       -8.5249  23.8133  16.0234   O.3       1 RES1  14.8157
    20 O       -7.9903  26.2839  16.6672   O.3       1 RES1  11.2469
    21 P       -9.4480  26.2038  17.3245   P.3       1 RES1  17.2915
    22 O       -9.6555  27.4052  18.1810   O.2       1 RES1  15.8881
    23 O       -9.5562  24.8903  18.2318   O.3       1 RES1   1.4784
    24 O      -10.5603  26.1733  16.1734   O.3       1 RES1  14.6257
    25 P      -11.9028  26.9030  16.6511   P.3       1 RES1  16.8341
    26 O      -11.6430  28.3607  16.8171   O.2       1 RES1  18.9679
    27 O      -12.3898  26.2950  18.0486   O.3       1 RES1   4.4470
    28 O      -13.0455  26.6998  15.5498   O.3       1 RES1  18.2409
    29 O       -4.4203  22.7516  15.9129   O.3       1 RES1  12.4331
    30 O       -2.8703  21.4879  14.1768   O.3       1 RES1  21.5193
    31 N        2.5470  25.9065  11.0003   N.pl3     1 RES1  26.1099
    32 H1       0.2318  22.8720   8.6905   H         1 RES1   0.0000
    33 H2      -1.1964  25.4177  14.5345   H         1 RES1   0.0000
    34 H3      -2.6447  22.7591  12.1400   H         1 RES1   0.0000
    35 H4      -1.6223  23.0058  14.8783   H         1 RES1   0.0000
    36 H5      -3.3460  24.5127  15.4946   H         1 RES1   0.0000
    37 H6      -5.0900  23.1205  13.3698   H         1 RES1   0.0000
    38 H7      -6.3325  25.2224  13.2783   H         1 RES1   0.0000
    39 H8      -5.0420  26.0884  14.1735   H         1 RES1   0.0000
    40 H9      -9.0589  23.9966  16.7874   H         1 RES1   0.0000
    41 H10    -10.2051  25.0274  18.9119   H         1 RES1   0.0000
    42 H11    -12.1488  26.8861  18.7520   H         1 RES1   0.0000
    43 H12    -12.6532  26.3978  14.7390   H         1 RES1   0.0000
    44 H13     -3.8541  22.5079  16.6358   H         1 RES1   0.0000
    45 H14     -3.7701  21.3771  13.8917   H         1 RES1   0.0000
    46 H15      3.2661  25.9725  10.2655   H         1 RES1   0.0000
    47 H16      2.6286  26.4801  11.8519   H         1 RES1   0.0000
    48 ****     2.0472  24.3546   9.0269   Du        1 RES1  25.4643
    49 ****    -1.4224  22.7141  10.4104   Du        1 RES1  22.0117
    50 ****     0.9625  26.2531  13.4162   Du        1 RES1  25.1226
    51 ****    -3.2545  25.3727  13.1570   Du        1 RES1  25.6716
    52 ****    -3.9512  24.5231  11.9490   Du        1 RES1  23.5124
    53 ****    -8.6870  26.5551  14.1463   Du        1 RES1  21.4731
    54 ****    -8.5199  24.9526  13.5107   Du        1 RES1  21.4731
    55 ****    -7.8368  23.1256  16.2549   Du        1 RES1  20.3612
    56 ****    -9.1054  23.4689  15.2857   Du        1 RES1  17.8555
    57 ****   -10.5015  27.9331  18.1055   Du        1 RES1  16.7921
    58 ****    -8.9488  27.6837  18.8314   Du        1 RES1  16.8358
    59 ****    -8.6684  24.7011  18.6516   Du        1 RES1  17.2915
    60 ****    -9.8282  24.1139  17.6633   Du        1 RES1  17.2915
    61 ****   -10.8063  28.6712  17.2682   Du        1 RES1  18.9679
    62 ****   -12.3054  29.0285  16.4776   Du        1 RES1  18.1570
    63 ****   -11.9545  25.4068  18.1955   Du        1 RES1  17.0445
    64 ****   -13.3832  26.1810  18.0345   Du        1 RES1  17.1067
    65 ****   -13.5133  27.5692  15.3903   Du        1 RES1  16.6282
    66 ****   -13.7045  26.0213  15.8743   Du        1 RES1  16.6270
    67 ****    -4.7127  21.9251  15.4318   Du        1 RES1  22.1639
    68 ****    -5.2221  23.2302  16.2709   Du        1 RES1  22.1639
    69 ****    -2.7452  21.0333  15.0587   Du        1 RES1  19.9046
    70 ****    -2.2573  21.0787  13.5009   Du        1 RES1  20.7642
@<TRIPOS>BOND
     1     1     2   ar
     2     2     3   ar
     3     3     4   ar
     4     4     5   ar
     5     5     6   ar
     6     1     6   ar
     7     5     7   ar
     8     7     8   ar
     9     8     9   ar
    10     4     9   ar
    11     7    10    1
    12    10    11    1
    13    11    12    1
    14    12    13    1
    15    13    14    1
    16    10    14    1
    17    13    15    1
    18    15    16    1
    19    16    17    1
    20    17    18    2
    21    17    19    1
    22    17    20    1
    23    20    21    1
    24    21    22    2
    25    21    23    1
    26    21    24    1
    27    24    25    1
    28    25    26    2
    29    25    27    1
    30    25    28    1
    31    12    29    1
    32    11    30    1
    33     3    31    1
    34     1    32    1
    35     8    33    1
    36    10    34    1
    37    11    35    1
    38    12    36    1
    39    13    37    1
    40    15    38    1
    41    15    39    1
    42    19    40    1
    43    23    41    1
    44    27    42    1
    45    28    43    1
    46    29    44    1
    47    30    45    1
    48    31    46    1
    49    31    47    1
    50     2    48    1
    51     6    49    1
    52     9    50    1
    53    14    51    1
    54    14    52    1
    55    18    53    1
    56    18    54    1
    57    19    55    1
    58    19    56    1
    59    22    57    1
    60    22    58    1
    61    23    59    1
    62    23    60    1
    63    26    61    1
    64    26    62    1
    65    27    63    1
    66    27    64    1
    67    28    65    1
    68    28    66    1
    69    29    67    1
    70    29    68    1
    71    30    69    1
    72    30    70    1
@<TRIPOS>SUBSTRUCTURE
     1 RES1        1 GROUP             0 ****  ****    0  
@<TRIPOS>MOLECULE
12.6486651455
    70    72     1     0     0
SMALL
USER_CHARGES
****
Generated from the CSD

@<TRIPOS>ATOM
     1 C       -3.2899  23.8056  10.7707   C.ar      1 RES1  23.3959
     2 N       -2.4854  24.0158   9.7031   N.ar      1 RES1  23.9662
     3 C       -1.2117  24.4392   9.8469   C.ar      1 RES1  23.9662
     4 C       -0.7558  24.6512  11.1452   C.ar      1 RES1  22.9654
     5 C       -1.6006  24.4220  12.2193   C.ar      1 RES1  22.7847
     6 N       -2.8632  23.9996  12.0367   N.ar      1 RES1  22.7847
     7 N       -0.8962  24.7049  13.3281   N.ar      1 RES1  20.7464
     8 C        0.3426  25.1083  12.9790   C.ar      1 RES1  20.7464
     9 N        0.4277  25.0674  11.6327   N.ar      1 RES1  24.9244
    10 C       -1.4016  24.6429  14.5911   C.3       1 RES1  20.6336
    11 C       -2.6871  25.4918  14.7164   C.3       1 RES1  25.0938
    12 C       -3.7787  24.4503  15.0200   C.3       1 RES1  22.1639
    13 C       -2.9562  23.3456  15.7070   C.3       1 RES1  22.1639
    14 O       -1.8046  23.2928  14.8613   O.3       1 RES1  20.1322
    15 C       -3.6695  21.9785  15.7274   C.3       1 RES1  22.1639
    16 O       -4.5427  21.9256  16.8599   O.3       1 RES1  22.0776
    17 P       -4.1025  21.2248  18.2290   P.3       1 RES1  18.8949
    18 O       -4.6721  19.8491  18.2854   O.2       1 RES1  18.8949
    19 O       -2.5063  21.1293  18.2787   O.3       1 RES1  16.7328
    20 O       -4.6165  22.0852  19.4776   O.3       1 RES1  17.6856
    21 P       -5.4080  23.3905  18.9947   P.3       1 RES1  17.8885
    22 O       -6.4746  22.9795  18.0390   O.2       1 RES1  18.2367
    23 O       -4.3985  24.3870  18.2542   O.3       1 RES1  13.6371
    24 O       -6.0755  24.1167  20.2557   O.3       1 RES1  15.2295
    25 P       -6.1805  23.1202  21.5044   P.3       1 RES1  19.6577
    26 O       -4.8144  22.6799  21.9039   O.2       1 RES1  16.5643
    27 O       -7.0504  21.8366  21.1099   O.3       1 RES1   0.0000
    28 O       -6.8659  23.8749  22.7376   O.3       1 RES1   0.0000
    29 O       -4.8032  24.9953  15.8598   O.3       1 RES1  19.5721
    30 O       -2.5528  26.3911  15.8235   O.3       1 RES1  28.7233
    31 N       -0.4110  24.6495   8.7802   N.pl3     1 RES1  12.0610
    32 H1      -4.3077  23.4713  10.6054   H         1 RES1   0.0000
    33 H2       1.1322  25.4134  13.6564   H         1 RES1   0.0000
    34 H3      -0.6657  24.9690  15.3418   H         1 RES1   0.0000
    35 H4      -2.9102  26.0537  13.7958   H         1 RES1   0.0000
    36 H5      -4.1875  24.0749  14.0698   H         1 RES1   0.0000
    37 H6      -2.6715  23.6663  16.7210   H         1 RES1   0.0000
    38 H7      -2.9356  21.1607  15.7762   H         1 RES1   0.0000
    39 H8      -4.2673  21.8741  14.8097   H         1 RES1   0.0000
    40 H9      -2.2034  20.5376  17.6000   H         1 RES1   0.0000
    41 H10     -3.6468  23.8996  17.9385   H         1 RES1   0.0000
    42 H11     -7.9464  21.9603  21.3999   H         1 RES1   0.0000
    43 H12     -6.5165  24.7558  22.8031   H         1 RES1   0.0000
    44 H13     -4.9326  25.9184  15.6758   H         1 RES1   0.0000
    45 H14     -1.7285  26.8611  15.7687   H         1 RES1   0.0000
    46 H15     -0.7656  24.4876   7.8266   H         1 RES1   0.0000
    47 H16      0.5569  24.9726   8.9203   H         1 RES1   0.0000
    48 ****    -2.8438  23.8533   8.7838   Du        1 RES1  21.1462
    49 ****    -3.4685  23.8340  12.8153   Du        1 RES1  23.3959
    50 ****     1.2329  25.3058  11.0897   Du        1 RES1  24.5771
    51 ****    -2.0310  22.8269  14.0059   Du        1 RES1  20.3442
    52 ****    -1.0652  22.8022  15.3225   Du        1 RES1  19.9046
    53 ****    -5.3611  19.5655  17.6184   Du        1 RES1  18.6308
    54 ****    -4.3654  19.2095  18.9903   Du        1 RES1  18.8949
    55 ****    -2.2206  20.7851  19.1730   Du        1 RES1  18.8949
    56 ****    -2.1133  22.0367  18.1297   Du        1 RES1  18.8949
    57 ****    -7.4334  22.9953  18.3227   Du        1 RES1  19.6577
    58 ****    -6.2317  22.6878  17.1138   Du        1 RES1  22.1639
    59 ****    -4.0939  25.0906  18.8961   Du        1 RES1  14.6656
    60 ****    -4.8637  24.8193  17.4817   Du        1 RES1  19.9202
    61 ****    -4.7012  21.9162  22.5396   Du        1 RES1  16.0577
    62 ****    -4.0108  23.1479  21.5365   Du        1 RES1  16.5643
    63 ****    -6.6663  21.0253  21.5505   Du        1 RES1  19.6577
    64 ****    -7.0349  21.7157  20.1173   Du        1 RES1  19.6577
    65 ****    -6.6732  23.3761  23.5826   Du        1 RES1  13.3694
    66 ****    -7.8546  23.9182  22.5941   Du        1 RES1  16.2803
    67 ****    -4.5357  24.8858  16.8171   Du        1 RES1  22.1639
    68 ****    -5.6587  24.5046  15.6946   Du        1 RES1  22.1639
    69 ****    -2.5795  25.8702  16.6766   Du        1 RES1  16.9663
    70 ****    -3.3079  27.0466  15.8095   Du        1 RES1  17.2615
@<TRIPOS>BOND
     1     1     2   ar
     2     2     3   ar
     3     3     4   ar
     4     4     5   ar
     5     5     6   ar
     6     1     6   ar
     7     5     7   ar
     8     7     8   ar
     9     8     9   ar
    10     4     9   ar
    11     7    10    1
    12    10    11    1
    13    11    12    1
    14    12    13    1
    15    13    14    1
    16    10    14    1
    17    13    15    1
    18    15    16    1
    19    16    17    1
    20    17    18    2
    21    17    19    1
    22    17    20    1
    23    20    21    1
    24    21    22    2
    25    21    23    1
    26    21    24    1
    27    24    25    1
    28    25    26    2
    29    25    27    1
    30    25    28    1
    31    12    29    1
    32    11    30    1
    33     3    31    1
    34     1    32    1
    35     8    33    1
    36    10    34    1
    37    11    35    1
    38    12    36    1
    39    13    37    1
    40    15    38    1
    41    15    39    1
    42    19    40    1
    43    23    41    1
    44    27    42    1
    45    28    43    1
    46    29    44    1
    47    30    45    1
    48    31    46    1
    49    31    47    1
    50     2    48    1
    51     6    49    1
    52     9    50    1
    53    14    51    1
    54    14    52    1
    55    18    53    1
    56    18    54    1
    57    19    55    1
    58    19    56    1
    59    22    57    1
    60    22    58    1
    61    23    59    1
    62    23    60    1
    63    26    61    1
    64    26    62    1
    65    27    63    1
    66    27    64    1
    67    28    65    1
    68    28    66    1
    69    29    67    1
    70    29    68    1
    71    30    69    1
    72    30    70    1
@<TRIPOS>SUBSTRUCTURE
     1 RES1        1 GROUP             0 ****  ****    0  
@<TRIPOS>MOLECULE
12.6146117677
    70    72     1     0     0
SMALL
USER_CHARGES
****
Generated from the CSD

@<TRIPOS>ATOM
     1 C       -0.7193  24.9892   9.8849   C.ar      1 RES1  24.9244
     2 N       -0.1568  23.8815   9.3485   N.ar      1 RES1  23.9662
     3 C       -0.0741  22.7233  10.0370   C.ar      1 RES1  23.0981
     4 C       -0.5946  22.7137  11.3283   C.ar      1 RES1  22.4505
     5 C       -1.1698  23.8617  11.8490   C.ar      1 RES1  22.7847
     6 N       -1.2348  24.9967  11.1326   N.ar      1 RES1  24.9244
     7 N       -1.5792  23.5554  13.0917   N.ar      1 RES1  22.6909
     8 C       -1.2699  22.2703  13.3595   C.ar      1 RES1  20.7642
     9 N       -0.6690  21.7525  12.2675   N.ar      1 RES1  20.7642
    10 C       -2.1584  24.4437  13.9461   C.3       1 RES1  20.6336
    11 C       -3.4445  25.0441  13.3342   C.3       1 RES1  24.7548
    12 C       -4.5575  24.5426  14.2713   C.3       1 RES1  22.1639
    13 C       -3.7826  24.3661  15.5894   C.3       1 RES1  22.1639
    14 O       -2.5836  23.7423  15.1230   O.3       1 RES1  20.4521
    15 C       -4.5031  23.4529  16.6019   C.3       1 RES1  22.1639
    16 O       -3.5296  22.8495  17.4598   O.3       1 RES1  17.6856
    17 P       -3.5814  21.2932  17.8266   P.3       1 RES1  18.8949
    18 O       -3.6705  20.4927  16.5730   O.2       1 RES1  18.8949
    19 O       -2.2419  20.8938  18.6047   O.3       1 RES1  16.7328
    20 O       -4.8437  20.9905  18.7640   O.3       1 RES1  13.8976
    21 P       -5.1556  22.2271  19.7320   P.3       1 RES1  18.8949
    22 O       -6.1466  23.1195  19.0675   O.2       1 RES1  19.6577
    23 O       -3.8101  23.0500  20.0021   O.3       1 RES1  13.6371
    24 O       -5.7636  21.6935  21.1136   O.3       1 RES1  16.8273
    25 P       -6.7920  20.4922  20.8637   P.3       1 RES1  19.6577
    26 O       -7.7368  20.8665  19.7741   O.2       1 RES1  19.6577
    27 O       -7.6227  20.1951  22.1985   O.3       1 RES1   0.0000
    28 O       -5.9884  19.1791  20.4280   O.3       1 RES1   0.0000
    29 O       -5.6267  25.4910  14.3686   O.3       1 RES1  19.5721
    30 O       -3.3708  26.4737  13.3896   O.3       1 RES1  28.7233
    31 N        0.4887  21.6194   9.5004   N.pl3     1 RES1  11.4536
    32 H1      -0.7575  25.8983   9.2957   H         1 RES1   0.0000
    33 H2      -1.4660  21.7433  14.2864   H         1 RES1   0.0000
    34 H3      -1.4661  25.2529  14.2247   H         1 RES1   0.0000
    35 H4      -3.6102  24.7123  12.2972   H         1 RES1   0.0000
    36 H5      -4.9117  23.5645  13.9128   H         1 RES1   0.0000
    37 H6      -3.5563  25.3512  16.0258   H         1 RES1   0.0000
    38 H7      -5.0805  22.6764  16.0789   H         1 RES1   0.0000
    39 H8      -5.1863  24.0639  17.2105   H         1 RES1   0.0000
    40 H9      -2.2377  19.9579  18.7678   H         1 RES1   0.0000
    41 H10     -4.0190  23.9692  20.1194   H         1 RES1   0.0000
    42 H11     -7.5729  20.9474  22.7763   H         1 RES1   0.0000
    43 H12     -5.0662  19.2925  20.6258   H         1 RES1   0.0000
    44 H13     -5.2990  26.3775  14.2724   H         1 RES1   0.0000
    45 H14     -2.6647  26.7457  13.9648   H         1 RES1   0.0000
    46 H15      0.8689  21.6452   8.5432   H         1 RES1   0.0000
    47 H16      0.5378  20.7494  10.0494   H         1 RES1   0.0000
    48 ****     0.2070  23.9219   8.4179   Du        1 RES1  23.9662
    49 ****    -1.6525  25.8222  11.5122   Du        1 RES1  25.0938
    50 ****    -0.3358  20.8144  12.1724   Du        1 RES1  20.7642
    51 ****    -2.7618  22.7833  14.9026   Du        1 RES1  22.1639
    52 ****    -1.8752  23.7965  15.8267   Du        1 RES1  19.2550
    53 ****    -4.2380  20.8130  15.8145   Du        1 RES1  18.6626
    54 ****    -3.1629  19.6351  16.4903   Du        1 RES1  18.8949
    55 ****    -2.2033  21.3841  19.4754   Du        1 RES1  18.8949
    56 ****    -1.4477  21.1389  18.0487   Du        1 RES1  16.7387
    57 ****    -5.8666  24.0225  18.7415   Du        1 RES1  17.6175
    58 ****    -7.0916  22.8154  18.9474   Du        1 RES1  19.6577
    59 ****    -3.1932  22.9453  19.2221   Du        1 RES1  17.7715
    60 ****    -3.3661  22.7011  20.8275   Du        1 RES1  16.5643
    61 ****    -7.8020  21.8181  19.4739   Du        1 RES1  19.6577
    62 ****    -8.3057  20.1661  19.3431   Du        1 RES1  18.3627
    63 ****    -7.2385  19.3950  22.6591   Du        1 RES1  17.7454
    64 ****    -8.5785  20.0177  21.9638   Du        1 RES1  17.7454
    65 ****    -6.1028  19.0287  19.4460   Du        1 RES1  17.8561
    66 ****    -6.3423  18.3898  20.9296   Du        1 RES1  17.7454
    67 ****    -6.0669  25.3989  15.2618   Du        1 RES1  20.7565
    68 ****    -6.2947  25.3078  13.6474   Du        1 RES1  25.2191
    69 ****    -4.2363  26.8355  13.7359   Du        1 RES1  25.2191
    70 ****    -3.2039  26.8312  12.4707   Du        1 RES1  25.0938
@<TRIPOS>BOND
     1     1     2   ar
     2     2     3   ar
     3     3     4   ar
     4     4     5   ar
     5     5     6   ar
     6     1     6   ar
     7     5     7   ar
     8     7     8   ar
     9     8     9   ar
    10     4     9   ar
    11     7    10    1
    12    10    11    1
    13    11    12    1
    14    12    13    1
    15    13    14    1
    16    10    14    1
    17    13    15    1
    18    15    16    1
    19    16    17    1
    20    17    18    2
    21    17    19    1
    22    17    20    1
    23    20    21    1
    24    21    22    2
    25    21    23    1
    26    21    24    1
    27    24    25    1
    28    25    26    2
    29    25    27    1
    30    25    28    1
    31    12    29    1
    32    11    30    1
    33     3    31    1
    34     1    32    1
    35     8    33    1
    36    10    34    1
    37    11    35    1
    38    12    36    1
    39    13    37    1
    40    15    38    1
    41    15    39    1
    42    19    40    1
    43    23    41    1
    44    27    42    1
    45    28    43    1
    46    29    44    1
    47    30    45    1
    48    31    46    1
    49    31    47    1
    50     2    48    1
    51     6    49    1
    52     9    50    1
    53    14    51    1
    54    14    52    1
    55    18    53    1
    56    18    54    1
    57    19    55    1
    58    19    56    1
    59    22    57    1
    60    22    58    1
    61    23    59    1
    62    23    60    1
    63    26    61    1
    64    26    62    1
    65    27    63    1
    66    27    64    1
    67    28    65    1
    68    28    66    1
    69    29    67    1
    70    29    68    1
    71    30    69    1
    72    30    70    1
@<TRIPOS>SUBSTRUCTURE
     1 RES1        1 GROUP             0 ****  ****    0  
@<TRIPOS>MOLECULE
12.5560312159
    70    72     1     0     0
SMALL
USER_CHARGES
****
Generated from the CSD

@<TRIPOS>ATOM
     1 C        4.4088  20.0823  10.0209   C.ar      1 RES1   6.7561
     2 N        4.3077  19.8910   8.6852   N.ar      1 RES1   6.6304
     3 C        3.3835  20.5377   7.9437   C.ar      1 RES1  13.9117
     4 C        2.5341  21.4154   8.6121   C.ar      1 RES1  22.9349
     5 C        2.6649  21.5953   9.9797   C.ar      1 RES1  22.9349
     6 N        3.5984  20.9339  10.6847   N.ar      1 RES1  18.6161
     7 N        1.7267  22.4871  10.3404   N.ar      1 RES1  24.7769
     8 C        1.0183  22.8542   9.2530   C.ar      1 RES1  24.7769
     9 N        1.5234  22.1965   8.1880   N.ar      1 RES1  23.3462
    10 C        1.5095  22.8913  11.6226   C.3       1 RES1  22.4505
    11 C        1.7154  24.4164  11.7658   C.3       1 RES1  20.1738
    12 C        0.3170  24.9348  12.1452   C.3       1 RES1  23.6958
    13 C       -0.2828  23.6989  12.8392   C.3       1 RES1  22.6909
    14 O        0.1336  22.6563  11.9539   O.3       1 RES1  20.1738
    15 C       -1.8216  23.7398  12.9331   C.3       1 RES1  22.6909
    16 O       -2.2088  24.8442  13.7565   O.3       1 RES1  22.8941
    17 P       -2.7029  24.6366  15.2638   P.3       1 RES1  20.4521
    18 O       -1.8292  23.6346  15.9368   O.2       1 RES1  19.2550
    19 O       -2.5966  26.0281  16.0459   O.3       1 RES1  28.7233
    20 O       -4.2248  24.1394  15.2805   O.3       1 RES1  19.2011
    21 P       -4.8426  24.2153  16.7556   P.3       1 RES1  22.1639
    22 O       -6.1997  23.6005  16.7404   O.2       1 RES1  22.1639
    23 O       -4.9670  25.7452  17.2074   O.3       1 RES1  16.2534
    24 O       -3.9068  23.4121  17.7766   O.3       1 RES1  17.6856
    25 P       -4.1537  21.8343  17.6639   P.3       1 RES1  19.9202
    26 O       -3.1611  21.1151  18.5108   O.2       1 RES1  18.8949
    27 O       -3.9873  21.3605  16.1447   O.3       1 RES1  16.3626
    28 O       -5.6278  21.4833  18.1773   O.3       1 RES1   7.2085
    29 O        0.3978  26.0793  13.0030   O.3       1 RES1  23.6446
    30 O        2.6339  24.6702  12.8355   O.3       1 RES1  18.7505
    31 N        3.2834  20.3445   6.6111   N.pl3     1 RES1   0.0000
    32 H1       5.1629  19.5358  10.5756   H         1 RES1   0.0000
    33 H2       0.1889  23.5521   9.2336   H         1 RES1   0.0000
    34 H3       2.1597  22.3596  12.3339   H         1 RES1   0.0000
    35 H4       2.0789  24.8799  10.8352   H         1 RES1   0.0000
    36 H5      -0.2438  25.1546  11.2243   H         1 RES1   0.0000
    37 H6       0.1775  23.5655  13.8304   H         1 RES1   0.0000
    38 H7      -2.2079  22.7997  13.3537   H         1 RES1   0.0000
    39 H8      -2.2370  23.8827  11.9244   H         1 RES1   0.0000
    40 H9      -1.7425  26.4139  15.8907   H         1 RES1   0.0000
    41 H10     -5.0250  26.2991  16.4379   H         1 RES1   0.0000
    42 H11     -3.6732  20.4643  16.1253   H         1 RES1   0.0000
    43 H12     -6.0493  20.9018  17.5555   H         1 RES1   0.0000
    44 H13      1.2862  26.4147  13.0325   H         1 RES1   0.0000
    45 H14      2.5853  25.5809  13.1031   H         1 RES1   0.0000
    46 H15      3.9206  19.6908   6.1334   H         1 RES1   0.0000
    47 H16      2.5684  20.8520   6.0708   H         1 RES1   0.0000
    48 ****     4.9340  19.2540   8.2357   Du        1 RES1   2.2105
    49 ****     3.6900  21.0685  11.6714   Du        1 RES1  14.9835
    50 ****     1.2014  22.2761   7.2446   Du        1 RES1  20.3708
    51 ****    -0.4242  22.6707  11.1241   Du        1 RES1  22.9349
    52 ****     0.0382  21.7685  12.4042   Du        1 RES1  19.5112
    53 ****    -2.2066  22.7536  16.2221   Du        1 RES1  19.2550
    54 ****    -0.8655  23.8432  16.1032   Du        1 RES1  18.6626
    55 ****    -2.7179  25.8699  17.0258   Du        1 RES1  16.9663
    56 ****    -3.3079  26.6500  15.7181   Du        1 RES1  20.4257
    57 ****    -6.9985  24.1576  16.5131   Du        1 RES1  20.3612
    58 ****    -6.3119  22.6308  16.9574   Du        1 RES1  20.8922
    59 ****    -4.1619  26.0013  17.7424   Du        1 RES1  16.9663
    60 ****    -5.7888  25.8623  17.7650   Du        1 RES1  16.4942
    61 ****    -3.3304  20.1685  18.7851   Du        1 RES1  18.8949
    62 ****    -2.3255  21.5790  18.8050   Du        1 RES1  18.8949
    63 ****    -3.3301  21.9542  15.6804   Du        1 RES1  22.1639
    64 ****    -4.8712  21.4141  15.6801   Du        1 RES1  20.3240
    65 ****    -6.1611  22.3252  18.2609   Du        1 RES1  19.6577
    66 ****    -5.5722  21.0342  19.0691   Du        1 RES1  18.6308
    67 ****     0.1146  25.8184  13.9259   Du        1 RES1  23.9527
    68 ****    -0.2112  26.7928  12.6566   Du        1 RES1  25.3864
    69 ****     3.5632  24.4661  12.5277   Du        1 RES1  18.6925
    70 ****     2.4043  24.0851  13.6132   Du        1 RES1  17.6355
@<TRIPOS>BOND
     1     1     2   ar
     2     2     3   ar
     3     3     4   ar
     4     4     5   ar
     5     5     6   ar
     6     1     6   ar
     7     5     7   ar
     8     7     8   ar
     9     8     9   ar
    10     4     9   ar
    11     7    10    1
    12    10    11    1
    13    11    12    1
    14    12    13    1
    15    13    14    1
    16    10    14    1
    17    13    15    1
    18    15    16    1
    19    16    17    1
    20    17    18    2
    21    17    19    1
    22    17    20    1
    23    20    21    1
    24    21    22    2
    25    21    23    1
    26    21    24    1
    27    24    25    1
    28    25    26    2
    29    25    27    1
    30    25    28    1
    31    12    29    1
    32    11    30    1
    33     3    31    1
    34     1    32    1
    35     8    33    1
    36    10    34    1
    37    11    35    1
    38    12    36    1
    39    13    37    1
    40    15    38    1
    41    15    39    1
    42    19    40    1
    43    23    41    1
    44    27    42    1
    45    28    43    1
    46    29    44    1
    47    30    45    1
    48    31    46    1
    49    31    47    1
    50     2    48    1
    51     6    49    1
    52     9    50    1
    53    14    51    1
    54    14    52    1
    55    18    53    1
    56    18    54    1
    57    19    55    1
    58    19    56    1
    59    22    57    1
    60    22    58    1
    61    23    59    1
    62    23    60    1
    63    26    61    1
    64    26    62    1
    65    27    63    1
    66    27    64    1
    67    28    65    1
    68    28    66    1
    69    29    67    1
    70    29    68    1
    71    30    69    1
    72    30    70    1
@<TRIPOS>SUBSTRUCTURE
     1 RES1        1 GROUP             0 ****  ****    0  
@<TRIPOS>MOLECULE
12.5543317325
    70    72     1     0     0
SMALL
USER_CHARGES
****
Generated from the CSD

@<TRIPOS>ATOM
     1 C        1.6665  20.6650   9.1021   C.ar      1 RES1  17.1234
     2 N        2.3398  19.5443   9.4508   N.ar      1 RES1  11.6426
     3 C        3.1532  19.5113  10.5277   C.ar      1 RES1   9.3871
     4 C        3.2715  20.6831  11.2701   C.ar      1 RES1  13.1941
     5 C        2.5652  21.8137  10.8923   C.ar      1 RES1  22.9349
     6 N        1.7638  21.8082   9.8136   N.ar      1 RES1  23.3462
     7 N        2.8712  22.7722  11.7830   N.ar      1 RES1  17.8718
     8 C        3.7441  22.2802  12.6858   C.ar      1 RES1  16.2100
     9 N        3.9833  20.9899  12.3704   N.ar      1 RES1  12.6710
    10 C        2.4039  24.0498  11.7214   C.3       1 RES1  22.2110
    11 C        2.5245  24.6161  10.2883   C.3       1 RES1  25.4643
    12 C        1.0621  24.8434   9.8664   C.3       1 RES1  25.4643
    13 C        0.3880  25.0701  11.2314   C.3       1 RES1  24.9244
    14 O        0.9997  24.0425  12.0150   O.3       1 RES1  20.5751
    15 C       -1.1416  24.8775  11.1948   C.3       1 RES1  24.9244
    16 O       -1.7104  25.4405  12.3812   O.3       1 RES1  22.8941
    17 P       -1.8006  24.6106  13.7459   P.3       1 RES1  20.7464
    18 O       -0.4555  24.0655  14.0827   O.2       1 RES1  20.3314
    19 O       -2.2757  25.5863  14.9214   O.3       1 RES1  28.7233
    20 O       -2.8567  23.4166  13.5951   O.3       1 RES1  22.8941
    21 P       -3.2182  22.7801  15.0190   P.3       1 RES1  22.1639
    22 O       -2.1943  23.2114  16.0119   O.2       1 RES1  19.2550
    23 O       -3.2031  21.1836  14.9128   O.3       1 RES1  19.1956
    24 O       -4.6615  23.2890  15.4890   O.3       1 RES1  22.0776
    25 P       -5.0424  22.6927  16.9251   P.3       1 RES1  22.1639
    26 O       -4.0808  23.2001  17.9438   O.2       1 RES1  18.5002
    27 O       -4.9745  21.0945  16.8907   O.3       1 RES1  10.9753
    28 O       -6.5196  23.1589  17.3256   O.3       1 RES1   1.5892
    29 O        0.9401  25.9654   8.9842   O.3       1 RES1  24.4894
    30 O        3.2173  25.8693  10.3328   O.3       1 RES1  26.1099
    31 N        3.8252  18.3922  10.8732   N.pl3     1 RES1   0.0000
    32 H1       1.0295  20.6452   8.2252   H         1 RES1   0.0000
    33 H2       4.1797  22.8221  13.5177   H         1 RES1   0.0000
    34 H3       2.9285  24.7109  12.4281   H         1 RES1   0.0000
    35 H4       3.0386  23.9222   9.6049   H         1 RES1   0.0000
    36 H5       0.6757  23.9207   9.4080   H         1 RES1   0.0000
    37 H6       0.6596  26.0625  11.6231   H         1 RES1   0.0000
    38 H7      -1.3948  23.8096  11.1231   H         1 RES1   0.0000
    39 H8      -1.5470  25.4053  10.3187   H         1 RES1   0.0000
    40 H9      -1.7886  26.4005  14.8732   H         1 RES1   0.0000
    41 H10     -2.5387  20.8336  15.4944   H         1 RES1   0.0000
    42 H11     -4.2724  20.7953  17.4562   H         1 RES1   0.0000
    43 H12     -6.5727  23.2666  18.2679   H         1 RES1   0.0000
    44 H13      1.5996  25.9289   8.3013   H         1 RES1   0.0000
    45 H14      3.1576  26.2487  11.2022   H         1 RES1   0.0000
    46 H15      3.7256  17.5343  10.3117   H         1 RES1   0.0000
    47 H16      4.4388  18.3965  11.7004   H         1 RES1   0.0000
    48 ****     2.2321  18.7190   8.8964   Du        1 RES1   7.8857
    49 ****     1.2548  22.6263   9.5459   Du        1 RES1  24.7769
    50 ****     4.5868  20.3678  12.8693   Du        1 RES1  10.0549
    51 ****     0.6066  23.1539  11.7786   Du        1 RES1  20.1738
    52 ****     0.8539  24.2232  12.9877   Du        1 RES1  20.5751
    53 ****     0.2504  24.0045  13.3770   Du        1 RES1  20.7464
    54 ****    -0.2585  23.7605  15.0145   Du        1 RES1  18.6961
    55 ****    -2.1084  25.1495  15.8053   Du        1 RES1  19.2550
    56 ****    -3.2526  25.7759  14.8229   Du        1 RES1  22.9223
    57 ****    -2.0243  22.6580  16.8273   Du        1 RES1  19.2550
    58 ****    -1.6771  24.0541  15.8629   Du        1 RES1  18.6626
    59 ****    -2.9979  20.9142  13.9719   Du        1 RES1  20.3442
    60 ****    -4.0986  20.8237  15.1748   Du        1 RES1  19.9046
    61 ****    -4.1610  22.9073  18.8966   Du        1 RES1  17.7715
    62 ****    -3.3552  23.8334  17.6748   Du        1 RES1  19.9202
    63 ****    -4.8020  20.7883  15.9545   Du        1 RES1  18.5145
    64 ****    -5.8437  20.7170  17.2101   Du        1 RES1  17.7715
    65 ****    -7.1789  22.4669  17.0314   Du        1 RES1  18.8521
    66 ****    -6.7275  24.0288  16.8783   Du        1 RES1  20.8922
    67 ****     1.0565  26.8092   9.5081   Du        1 RES1  28.3526
    68 ****     0.0323  25.9561   8.5648   Du        1 RES1  26.0179
    69 ****     2.8075  26.4964   9.6704   Du        1 RES1  28.4929
    70 ****     4.1792  25.7228  10.1021   Du        1 RES1  25.4956
@<TRIPOS>BOND
     1     1     2   ar
     2     2     3   ar
     3     3     4   ar
     4     4     5   ar
     5     5     6   ar
     6     1     6   ar
     7     5     7   ar
     8     7     8   ar
     9     8     9   ar
    10     4     9   ar
    11     7    10    1
    12    10    11    1
    13    11    12    1
    14    12    13    1
    15    13    14    1
    16    10    14    1
    17    13    15    1
    18    15    16    1
    19    16    17    1
    20    17    18    2
    21    17    19    1
    22    17    20    1
    23    20    21    1
    24    21    22    2
    25    21    23    1
    26    21    24    1
    27    24    25    1
    28    25    26    2
    29    25    27    1
    30    25    28    1
    31    12    29    1
    32    11    30    1
    33     3    31    1
    34     1    32    1
    35     8    33    1
    36    10    34    1
    37    11    35    1
    38    12    36    1
    39    13    37    1
    40    15    38    1
    41    15    39    1
    42    19    40    1
    43    23    41    1
    44    27    42    1
    45    28    43    1
    46    29    44    1
    47    30    45    1
    48    31    46    1
    49    31    47    1
    50     2    48    1
    51     6    49    1
    52     9    50    1
    53    14    51    1
    54    14    52    1
    55    18    53    1
    56    18    54    1
    57    19    55    1
    58    19    56    1
    59    22    57    1
    60    22    58    1
    61    23    59    1
    62    23    60    1
    63    26    61    1
    64    26    62    1
    65    27    63    1
    66    27    64    1
    67    28    65    1
    68    28    66    1
    69    29    67    1
    70    29    68    1
    71    30    69    1
    72    30    70    1
@<TRIPOS>SUBSTRUCTURE
     1 RES1        1 GROUP             0 ****  ****    0  
@<TRIPOS>MOLECULE
12.3095016615
    70    72     1     0     0
SMALL
USER_CHARGES
****
Generated from the CSD

@<TRIPOS>ATOM
     1 C       -1.1757  21.5236  11.3269   C.ar      1 RES1  22.4505
     2 N       -0.3234  21.7880  10.3097   N.ar      1 RES1  22.9349
     3 C        0.4354  22.9044  10.2918   C.ar      1 RES1  24.7769
     4 C        0.3059  23.7774  11.3686   C.ar      1 RES1  22.4505
     5 C       -0.5708  23.4773  12.3987   C.ar      1 RES1  22.7847
     6 N       -1.3097  22.3550  12.3820   N.ar      1 RES1  20.7642
     7 N       -0.4816  24.4847  13.2836   N.ar      1 RES1  20.7464
     8 C        0.4056  25.3959  12.8345   C.ar      1 RES1  21.7975
     9 N        0.8942  24.9531  11.6568   N.ar      1 RES1  20.9897
    10 C       -1.2291  24.5733  14.4184   C.3       1 RES1  20.6336
    11 C       -2.5149  25.3951  14.1729   C.3       1 RES1  25.0938
    12 C       -3.6436  24.3718  14.3904   C.3       1 RES1  22.1639
    13 C       -2.9733  23.3893  15.3673   C.3       1 RES1  22.1639
    14 O       -1.6760  23.2591  14.7808   O.3       1 RES1  19.9046
    15 C       -3.6744  22.0170  15.4278   C.3       1 RES1  22.1639
    16 O       -4.2089  21.8246  16.7412   O.3       1 RES1  19.2011
    17 P       -5.4551  22.6742  17.2747   P.3       1 RES1  19.9202
    18 O       -4.9621  23.9261  17.9148   O.2       1 RES1  18.0953
    19 O       -6.3951  23.0574  16.0382   O.3       1 RES1   4.5165
    20 O       -6.2982  21.8121  18.3281   O.3       1 RES1  15.8379
    21 P       -6.9583  22.7489  19.4462   P.3       1 RES1  19.6577
    22 O       -7.8583  21.9204  20.2969   O.2       1 RES1  19.6577
    23 O       -7.8183  23.9002  18.7425   O.3       1 RES1   0.6201
    24 O       -5.8115  23.3948  20.3578   O.3       1 RES1  15.2295
    25 P       -4.8672  22.2628  20.9823   P.3       1 RES1  16.5643
    26 O       -3.7856  22.9044  21.7812   O.2       1 RES1  16.5643
    27 O       -4.2087  21.3916  19.8131   O.3       1 RES1  13.9494
    28 O       -5.7283  21.3131  21.9396   O.3       1 RES1   7.2085
    29 O       -4.8160  24.9926  14.9310   O.3       1 RES1  19.5721
    30 O       -2.6058  26.4341  15.1551   O.3       1 RES1  28.7233
    31 N        1.2844  23.1670   9.2752   N.pl3     1 RES1  11.4099
    32 H1      -1.7692  20.6171  11.2944   H         1 RES1   0.0000
    33 H2       0.6795  26.3215  13.3281   H         1 RES1   0.0000
    34 H3      -0.6584  25.0148  15.2497   H         1 RES1   0.0000
    35 H4      -2.5504  25.8260  13.1600   H         1 RES1   0.0000
    36 H5      -3.8539  23.8648  13.4367   H         1 RES1   0.0000
    37 H6      -2.8974  23.8469  16.3657   H         1 RES1   0.0000
    38 H7      -2.9667  21.2108  15.1848   H         1 RES1   0.0000
    39 H8      -4.4999  22.0055  14.7006   H         1 RES1   0.0000
    40 H9      -6.2723  23.9737  15.8194   H         1 RES1   0.0000
    41 H10     -8.3674  23.5182  18.0680   H         1 RES1   0.0000
    42 H11     -4.3471  21.8250  18.9792   H         1 RES1   0.0000
    43 H12     -5.7213  20.4275  21.5960   H         1 RES1   0.0000
    44 H13     -4.8079  25.9278  14.7644   H         1 RES1   0.0000
    45 H14     -1.7499  26.8172  15.3103   H         1 RES1   0.0000
    46 H15      1.3668  22.5095   8.4864   H         1 RES1   0.0000
    47 H16      1.8511  24.0269   9.2885   H         1 RES1   0.0000
    48 ****    -0.2538  21.1397   9.5516   Du        1 RES1  21.2093
    49 ****    -1.9398  22.1421  13.1287   Du        1 RES1  20.7642
    50 ****     1.5770  25.4193  11.0943   Du        1 RES1  24.5771
    51 ****    -1.7262  22.6798  13.9672   Du        1 RES1  20.3442
    52 ****    -1.0429  22.8536  15.4401   Du        1 RES1  19.9046
    53 ****    -5.5913  24.6864  18.0761   Du        1 RES1  18.0953
    54 ****    -4.0021  24.0059  18.1832   Du        1 RES1  18.0953
    55 ****    -7.3512  22.8987  16.2845   Du        1 RES1  20.3612
    56 ****    -6.1557  22.4914  15.2494   Du        1 RES1  22.1639
    57 ****    -7.5764  21.6643  21.2215   Du        1 RES1  19.6577
    58 ****    -8.7443  21.6205  19.9433   Du        1 RES1  19.6577
    59 ****    -7.2023  24.5715  18.3302   Du        1 RES1  17.0093
    60 ****    -8.3937  24.3509  19.4250   Du        1 RES1  17.2915
    61 ****    -3.0247  22.3543  22.1254   Du        1 RES1  16.5643
    62 ****    -3.8204  23.8852  21.9733   Du        1 RES1  16.5643
    63 ****    -4.6327  20.4862  19.7927   Du        1 RES1  18.6308
    64 ****    -3.2274  21.2965  19.9805   Du        1 RES1  18.6308
    65 ****    -6.6700  21.6471  21.9813   Du        1 RES1  18.2795
    66 ****    -5.3322  21.3176  22.8578   Du        1 RES1  17.3541
    67 ****    -4.8454  24.8351  15.9181   Du        1 RES1  22.1639
    68 ****    -5.6265  24.5903  14.5050   Du        1 RES1  22.1639
    69 ****    -2.9553  26.0503  16.0098   Du        1 RES1  17.9298
    70 ****    -3.2303  27.1434  14.8282   Du        1 RES1  22.9223
@<TRIPOS>BOND
     1     1     2   ar
     2     2     3   ar
     3     3     4   ar
     4     4     5   ar
     5     5     6   ar
     6     1     6   ar
     7     5     7   ar
     8     7     8   ar
     9     8     9   ar
    10     4     9   ar
    11     7    10    1
    12    10    11    1
    13    11    12    1
    14    12    13    1
    15    13    14    1
    16    10    14    1
    17    13    15    1
    18    15    16    1
    19    16    17    1
    20    17    18    2
    21    17    19    1
    22    17    20    1
    23    20    21    1
    24    21    22    2
    25    21    23    1
    26    21    24    1
    27    24    25    1
    28    25    26    2
    29    25    27    1
    30    25    28    1
    31    12    29    1
    32    11    30    1
    33     3    31    1
    34     1    32    1
    35     8    33    1
    36    10    34    1
    37    11    35    1
    38    12    36    1
    39    13    37    1
    40    15    38    1
    41    15    39    1
    42    19    40    1
    43    23    41    1
    44    27    42    1
    45    28    43    1
    46    29    44    1
    47    30    45    1
    48    31    46    1
    49    31    47    1
    50     2    48    1
    51     6    49    1
    52     9    50    1
    53    14    51    1
    54    14    52    1
    55    18    53    1
    56    18    54    1
    57    19    55    1
    58    19    56    1
    59    22    57    1
    60    22    58    1
    61    23    59    1
    62    23    60    1
    63    26    61    1
    64    26    62    1
    65    27    63    1
    66    27    64    1
    67    28    65    1
    68    28    66    1
    69    29    67    1
    70    29    68    1
    71    30    69    1
    72    30    70    1
@<TRIPOS>SUBSTRUCTURE
     1 RES1        1 GROUP             0 ****  ****    0  
@<TRIPOS>MOLECULE
12.24947953
    70    72     1     0     0
SMALL
USER_CHARGES
****
Generated from the CSD

@<TRIPOS>ATOM
     1 C        4.3477  19.8549  12.2375   C.ar      1 RES1   9.4027
     2 N        3.7164  18.6993  11.9261   N.ar      1 RES1   5.8385
     3 C        2.4064  18.6716  11.6012   C.ar      1 RES1   6.0732
     4 C        1.7272  19.8869  11.5984   C.ar      1 RES1  17.1234
     5 C        2.4014  21.0551  11.9160   C.ar      1 RES1  16.8192
     6 N        3.7070  21.0432  12.2337   N.ar      1 RES1  13.1390
     7 N        1.5038  22.0513  11.8290   N.ar      1 RES1  20.1738
     8 C        0.3042  21.5422  11.4814   C.ar      1 RES1  22.4505
     9 N        0.4473  20.2083  11.3335   N.ar      1 RES1  19.2957
    10 C        1.7787  23.3544  12.1133   C.3       1 RES1  20.1738
    11 C        1.7876  24.2127  10.8279   C.3       1 RES1  24.5771
    12 C        0.6111  25.1831  11.0344   C.3       1 RES1  24.9244
    13 C        0.5519  25.2599  12.5705   C.3       1 RES1  21.7975
    14 O        0.7188  23.8841  12.9220   O.3       1 RES1  20.7464
    15 C       -0.7952  25.7895  13.1024   C.3       1 RES1  25.0938
    16 O       -1.6293  24.6788  13.4462   O.3       1 RES1  22.8941
    17 P       -2.2421  24.5101  14.9144   P.3       1 RES1  20.6336
    18 O       -1.4395  23.5100  15.6730   O.2       1 RES1  19.9046
    19 O       -2.1743  25.9161  15.6746   O.3       1 RES1  28.7233
    20 O       -3.7685  24.0356  14.8223   O.3       1 RES1  19.2011
    21 P       -4.5318  24.2683  16.2104   P.3       1 RES1  22.1639
    22 O       -5.9935  24.0784  15.9926   O.2       1 RES1  22.1639
    23 O       -4.2695  25.7610  16.7235   O.3       1 RES1  22.4585
    24 O       -4.0148  23.2118  17.2965   O.3       1 RES1  19.2011
    25 P       -4.1127  21.7155  16.7358   P.3       1 RES1  20.3240
    26 O       -3.9811  20.7528  17.8653   O.2       1 RES1  18.8949
    27 O       -2.9408  21.4478  15.6799   O.3       1 RES1  16.3626
    28 O       -5.5318  21.4985  16.0294   O.3       1 RES1   2.9510
    29 O        0.8631  26.4504  10.4159   O.3       1 RES1  26.1099
    30 O        3.0159  24.9467  10.7590   O.3       1 RES1  26.1099
    31 N        1.7780  17.5172  11.2919   N.pl3     1 RES1   0.0000
    32 H1       5.3995  19.8267  12.4980   H         1 RES1   0.0000
    33 H2      -0.6146  22.1014  11.3455   H         1 RES1   0.0000
    34 H3       2.7390  23.4635  12.6402   H         1 RES1   0.0000
    35 H4       1.6559  23.6066   9.9179   H         1 RES1   0.0000
    36 H5      -0.3077  24.7167  10.6483   H         1 RES1   0.0000
    37 H6       1.3965  25.8563  12.9486   H         1 RES1   0.0000
    38 H7      -1.2903  26.4151  12.3452   H         1 RES1   0.0000
    39 H8      -0.6109  26.3912  14.0049   H         1 RES1   0.0000
    40 H9      -1.3581  26.3526  15.4606   H         1 RES1   0.0000
    41 H10     -4.9401  26.3377  16.3769   H         1 RES1   0.0000
    42 H11     -2.6028  20.5681  15.7985   H         1 RES1   0.0000
    43 H12     -5.8345  22.3232  15.6678   H         1 RES1   0.0000
    44 H13      0.6133  26.4323   9.4995   H         1 RES1   0.0000
    45 H14      3.1068  25.5102  11.5190   H         1 RES1   0.0000
    46 H15      2.2968  16.6272  11.2995   H         1 RES1   0.0000
    47 H16      0.7775  17.5266  11.0478   H         1 RES1   0.0000
    48 ****     4.2337  17.8436  11.9368   Du        1 RES1   4.6412
    49 ****     4.1896  21.8892  12.4606   Du        1 RES1  14.1412
    50 ****    -0.2747  19.5679  11.0717   Du        1 RES1  19.2957
    51 ****    -0.1279  23.3821  12.7457   Du        1 RES1  22.6453
    52 ****     0.9571  23.8061  13.8901   Du        1 RES1  19.4519
    53 ****    -1.8585  22.9971  16.4223   Du        1 RES1  19.2550
    54 ****    -0.4817  23.3516  15.4330   Du        1 RES1  17.7547
    55 ****    -2.2222  25.7640  16.6618   Du        1 RES1  16.5684
    56 ****    -2.9432  26.4876  15.3877   Du        1 RES1  20.4257
    57 ****    -6.3467  23.9335  15.0684   Du        1 RES1  20.8922
    58 ****    -6.6214  24.0960  16.7708   Du        1 RES1  20.8922
    59 ****    -3.3711  26.0682  16.4098   Du        1 RES1  17.3860
    60 ****    -4.2979  25.7797  17.7230   Du        1 RES1  16.9663
    61 ****    -4.1275  19.7760  17.7094   Du        1 RES1  18.8949
    62 ****    -3.7463  21.0836  18.7794   Du        1 RES1  18.8949
    63 ****    -2.2052  22.1098  15.8235   Du        1 RES1  19.2550
    64 ****    -3.2999  21.5447  14.7517   Du        1 RES1  20.3240
    65 ****    -6.1925  21.1673  16.7030   Du        1 RES1  17.7806
    66 ****    -5.4393  20.8263  15.2948   Du        1 RES1  18.5002
    67 ****     1.8379  26.6620  10.4864   Du        1 RES1  25.4643
    68 ****     0.3338  27.1563  10.8866   Du        1 RES1  25.3864
    69 ****     3.0193  25.5071   9.9307   Du        1 RES1  25.4956
    70 ****     3.7825  24.3052  10.7305   Du        1 RES1  25.4643
@<TRIPOS>BOND
     1     1     2   ar
     2     2     3   ar
     3     3     4   ar
     4     4     5   ar
     5     5     6   ar
     6     1     6   ar
     7     5     7   ar
     8     7     8   ar
     9     8     9   ar
    10     4     9   ar
    11     7    10    1
    12    10    11    1
    13    11    12    1
    14    12    13    1
    15    13    14    1
    16    10    14    1
    17    13    15    1
    18    15    16    1
    19    16    17    1
    20    17    18    2
    21    17    19    1
    22    17    20    1
    23    20    21    1
    24    21    22    2
    25    21    23    1
    26    21    24    1
    27    24    25    1
    28    25    26    2
    29    25    27    1
    30    25    28    1
    31    12    29    1
    32    11    30    1
    33     3    31    1
    34     1    32    1
    35     8    33    1
    36    10    34    1
    37    11    35    1
    38    12    36    1
    39    13    37    1
    40    15    38    1
    41    15    39    1
    42    19    40    1
    43    23    41    1
    44    27    42    1
    45    28    43    1
    46    29    44    1
    47    30    45    1
    48    31    46    1
    49    31    47    1
    50     2    48    1
    51     6    49    1
    52     9    50    1
    53    14    51    1
    54    14    52    1
    55    18    53    1
    56    18    54    1
    57    19    55    1
    58    19    56    1
    59    22    57    1
    60    22    58    1
    61    23    59    1
    62    23    60    1
    63    26    61    1
    64    26    62    1
    65    27    63    1
    66    27    64    1
    67    28    65    1
    68    28    66    1
    69    29    67    1
    70    29    68    1
    71    30    69    1
    72    30    70    1
@<TRIPOS>SUBSTRUCTURE
     1 RES1        1 GROUP             0 ****  ****    0  
@<TRIPOS>MOLECULE
12.0086894359
    70    72     1     0     0
SMALL
USER_CHARGES
****
Generated from the CSD

@<TRIPOS>ATOM
     1 C       -1.3195  23.5236  11.2959   C.ar      1 RES1  22.7847
     2 N       -0.0375  23.9278  11.1410   N.ar      1 RES1  23.1040
     3 C        0.5658  24.7343  12.0398   C.ar      1 RES1  21.6459
     4 C       -0.1879  25.1351  13.1397   C.ar      1 RES1  22.2897
     5 C       -1.4967  24.7005  13.2747   C.ar      1 RES1  20.7464
     6 N       -2.0634  23.8968  12.3589   N.ar      1 RES1  22.7847
     7 N       -1.9633  25.2379  14.4145   N.ar      1 RES1  22.9223
     8 C       -0.9989  25.9929  14.9794   C.ar      1 RES1  22.9223
     9 N        0.0965  25.9216  14.1942   N.ar      1 RES1  23.9527
    10 C       -3.2363  25.0764  14.8703   C.3       1 RES1  22.9223
    11 C       -4.1947  24.7001  13.7176   C.3       1 RES1  23.3959
    12 C       -4.6672  23.2835  14.0896   C.3       1 RES1  22.1639
    13 C       -4.5312  23.3151  15.6224   C.3       1 RES1  22.1639
    14 O       -3.2654  23.9624  15.7737   O.3       1 RES1  22.1639
    15 C       -4.4949  21.9113  16.2597   C.3       1 RES1  22.1639
    16 O       -4.4014  22.0473  17.6811   O.3       1 RES1  22.0776
    17 P       -5.6762  22.4109  18.5767   P.3       1 RES1  18.5145
    18 O       -5.3426  23.5562  19.4696   O.2       1 RES1  17.8885
    19 O       -6.8857  22.8335  17.6186   O.3       1 RES1   1.5892
    20 O       -6.1156  21.1423  19.4492   O.3       1 RES1  16.8273
    21 P       -6.3283  21.5416  20.9851   P.3       1 RES1  19.6577
    22 O       -7.3931  22.5806  21.0683   O.2       1 RES1  19.6577
    23 O       -4.9675  22.1394  21.5777   O.3       1 RES1  13.6371
    24 O       -6.7767  20.2530  21.8226   O.3       1 RES1  10.7431
    25 P       -8.0815  19.5783  21.1859   P.3       1 RES1  17.7454
    26 O       -8.4784  18.3975  22.0032   O.2       1 RES1  17.7454
    27 O       -7.7771  19.1013  19.6893   O.3       1 RES1   0.0000
    28 O       -9.2832  20.6345  21.1789   O.3       1 RES1   0.0000
    29 O       -6.0088  23.0461  13.6474   O.3       1 RES1   4.5165
    30 O       -5.3098  25.5995  13.7182   O.3       1 RES1  19.5721
    31 N        1.8449  25.1375  11.8827   N.pl3     1 RES1  26.1099
    32 H1      -1.7635  22.8808  10.5444   H         1 RES1   0.0000
    33 H2      -1.0848  26.5591  15.9000   H         1 RES1   0.0000
    34 H3      -3.6048  25.9794  15.3807   H         1 RES1   0.0000
    35 H4      -3.6960  24.7144  12.7357   H         1 RES1   0.0000
    36 H5      -3.9632  22.5506  13.6675   H         1 RES1   0.0000
    37 H6      -5.3315  23.9339  16.0568   H         1 RES1   0.0000
    38 H7      -3.6395  21.3354  15.8771   H         1 RES1   0.0000
    39 H8      -5.4273  21.3824  16.0116   H         1 RES1   0.0000
    40 H9      -7.7104  22.6883  18.0673   H         1 RES1   0.0000
    41 H10     -4.2293  21.7832  21.0975   H         1 RES1   0.0000
    42 H11     -8.3080  18.3404  19.4855   H         1 RES1   0.0000
    43 H12    -10.0913  20.1958  21.4174   H         1 RES1   0.0000
    44 H13     -6.1178  23.3186  12.7438   H         1 RES1   0.0000
    45 H14     -5.1712  26.2966  14.3493   H         1 RES1   0.0000
    46 H15      2.3873  24.8310  11.0622   H         1 RES1   0.0000
    47 H16      2.2793  25.7529  12.5851   H         1 RES1   0.0000
    48 ****     0.4764  23.6211  10.3398   Du        1 RES1  25.2038
    49 ****    -3.0078  23.5845  12.4617   Du        1 RES1  22.7847
    50 ****     0.9705  26.3758  14.3665   Du        1 RES1  23.5037
    51 ****    -2.5277  23.3246  15.5523   Du        1 RES1  20.4521
    52 ****    -3.1571  24.2836  16.7145   Du        1 RES1  22.1639
    53 ****    -4.5151  24.0932  19.3059   Du        1 RES1  16.5643
    54 ****    -5.9461  23.7877  20.2325   Du        1 RES1  17.7403
    55 ****    -6.8585  22.2825  16.7846   Du        1 RES1  18.8521
    56 ****    -6.8009  23.8013  17.3817   Du        1 RES1  17.0093
    57 ****    -7.2194  23.4366  21.5553   Du        1 RES1  19.6577
    58 ****    -8.2813  22.4219  20.6371   Du        1 RES1  19.6577
    59 ****    -4.8875  21.8921  22.5433   Du        1 RES1  16.9872
    60 ****    -4.9741  23.1354  21.4881   Du        1 RES1  16.5643
    61 ****    -8.2148  18.3447  22.9664   Du        1 RES1  17.3541
    62 ****    -9.0083  17.6577  21.5885   Du        1 RES1  14.0756
    63 ****    -6.8092  18.8646  19.6051   Du        1 RES1  17.7454
    64 ****    -7.9960  19.8408  19.0527   Du        1 RES1  18.3627
    65 ****    -9.3752  21.0289  20.2645   Du        1 RES1  16.3200
    66 ****    -9.0917  21.3619  21.8378   Du        1 RES1  18.2795
    67 ****    -6.6410  23.5630  14.2246   Du        1 RES1  21.9582
    68 ****    -6.2113  22.0697  13.7226   Du        1 RES1  21.3602
    69 ****    -6.1394  25.0961  13.9597   Du        1 RES1  22.1639
    70 ****    -5.4142  25.9962  12.8062   Du        1 RES1  26.3266
@<TRIPOS>BOND
     1     1     2   ar
     2     2     3   ar
     3     3     4   ar
     4     4     5   ar
     5     5     6   ar
     6     1     6   ar
     7     5     7   ar
     8     7     8   ar
     9     8     9   ar
    10     4     9   ar
    11     7    10    1
    12    10    11    1
    13    11    12    1
    14    12    13    1
    15    13    14    1
    16    10    14    1
    17    13    15    1
    18    15    16    1
    19    16    17    1
    20    17    18    2
    21    17    19    1
    22    17    20    1
    23    20    21    1
    24    21    22    2
    25    21    23    1
    26    21    24    1
    27    24    25    1
    28    25    26    2
    29    25    27    1
    30    25    28    1
    31    12    29    1
    32    11    30    1
    33     3    31    1
    34     1    32    1
    35     8    33    1
    36    10    34    1
    37    11    35    1
    38    12    36    1
    39    13    37    1
    40    15    38    1
    41    15    39    1
    42    19    40    1
    43    23    41    1
    44    27    42    1
    45    28    43    1
    46    29    44    1
    47    30    45    1
    48    31    46    1
    49    31    47    1
    50     2    48    1
    51     6    49    1
    52     9    50    1
    53    14    51    1
    54    14    52    1
    55    18    53    1
    56    18    54    1
    57    19    55    1
    58    19    56    1
    59    22    57    1
    60    22    58    1
    61    23    59    1
    62    23    60    1
    63    26    61    1
    64    26    62    1
    65    27    63    1
    66    27    64    1
    67    28    65    1
    68    28    66    1
    69    29    67    1
    70    29    68    1
    71    30    69    1
    72    30    70    1
@<TRIPOS>SUBSTRUCTURE
     1 RES1        1 GROUP             0 ****  ****    0  
@<TRIPOS>MOLECULE
11.7788127207
    70    72     1     0     0
SMALL
USER_CHARGES
****
Generated from the CSD

@<TRIPOS>ATOM
     1 C        1.0379  24.9830  12.0341   C.ar      1 RES1  20.5751
     2 N        0.7511  24.8183  10.7220   N.ar      1 RES1  25.4643
     3 C       -0.4758  24.4386  10.3061   C.ar      1 RES1  23.9662
     4 C       -1.4402  24.2230  11.2869   C.ar      1 RES1  22.7847
     5 C       -1.1190  24.4051  12.6224   C.ar      1 RES1  22.7847
     6 N        0.1141  24.7847  12.9984   N.ar      1 RES1  22.2897
     7 N       -2.2310  24.1305  13.3249   N.ar      1 RES1  20.7642
     8 C       -3.2187  23.7772  12.4771   C.ar      1 RES1  22.7847
     9 N       -2.7293  23.8419  11.2209   N.ar      1 RES1  22.7847
    10 C       -2.3013  24.1548  14.6847   C.3       1 RES1  20.4521
    11 C       -3.2730  25.2543  15.1703   C.3       1 RES1  22.9223
    12 C       -4.3970  24.4623  15.8616   C.3       1 RES1  22.1639
    13 C       -3.6422  23.1967  16.3061   C.3       1 RES1  22.1639
    14 O       -2.8637  22.9161  15.1401   O.3       1 RES1  22.1639
    15 C       -4.5756  22.0114  16.6254   C.3       1 RES1  22.1639
    16 O       -5.2780  22.2862  17.8415   O.3       1 RES1  17.6856
    17 P       -5.2646  21.2619  19.0702   P.3       1 RES1  18.6308
    18 O       -5.3375  19.8669  18.5516   O.2       1 RES1  18.6308
    19 O       -3.9011  21.4424  19.8873   O.3       1 RES1  13.9494
    20 O       -6.5025  21.5531  20.0430   O.3       1 RES1  16.8273
    21 P       -7.0547  20.2005  20.6981   P.3       1 RES1  18.3627
    22 O       -5.8966  19.3553  21.1035   O.2       1 RES1  17.7454
    23 O       -7.9326  19.4033  19.6238   O.3       1 RES1   0.0000
    24 O       -7.9386  20.5449  21.9878   O.3       1 RES1  10.7431
    25 P       -7.1120  21.4347  23.0309   P.3       1 RES1  17.3541
    26 O       -8.0242  21.9120  24.1079   O.2       1 RES1  10.4090
    27 O       -6.4727  22.6989  22.2873   O.3       1 RES1   0.0000
    28 O       -5.9491  20.5526  23.6862   O.3       1 RES1   0.0000
    29 O       -4.9587  25.1970  16.9556   O.3       1 RES1  16.2534
    30 O       -2.6052  26.0852  16.1274   O.3       1 RES1  28.7233
    31 N       -0.7596  24.2736   8.9963   N.pl3     1 RES1  12.0610
    32 H1       2.0394  25.2830  12.3206   H         1 RES1   0.0000
    33 H2      -4.2274  23.4901  12.7517   H         1 RES1   0.0000
    34 H3      -1.3114  24.3046  15.1420   H         1 RES1   0.0000
    35 H4      -3.6617  25.8666  14.3415   H         1 RES1   0.0000
    36 H5      -5.1596  24.1986  15.1135   H         1 RES1   0.0000
    37 H6      -2.9848  23.4320  17.1572   H         1 RES1   0.0000
    38 H7      -3.9980  21.0805  16.7235   H         1 RES1   0.0000
    39 H8      -5.3044  21.9008  15.8086   H         1 RES1   0.0000
    40 H9      -4.0047  22.1377  20.5263   H         1 RES1   0.0000
    41 H10     -8.8547  19.5119  19.8247   H         1 RES1   0.0000
    42 H11     -5.6053  22.8661  22.6364   H         1 RES1   0.0000
    43 H12     -5.8474  19.7469  23.1933   H         1 RES1   0.0000
    44 H13     -4.9497  26.1294  16.7736   H         1 RES1   0.0000
    45 H14     -1.9535  26.6265  15.6966   H         1 RES1   0.0000
    46 H15     -0.0332  24.4375   8.2845   H         1 RES1   0.0000
    47 H16     -1.7049  23.9833   8.7083   H         1 RES1   0.0000
    48 ****     1.4665  24.9821  10.0428   Du        1 RES1  25.4643
    49 ****     0.3405  24.9165  13.9635   Du        1 RES1  19.8892
    50 ****    -3.2380  23.6410  10.3837   Du        1 RES1  22.7847
    51 ****    -3.4458  22.5237  14.4279   Du        1 RES1  22.1639
    52 ****    -2.1325  22.2721  15.3653   Du        1 RES1  19.9046
    53 ****    -5.6389  19.1257  19.1513   Du        1 RES1  18.6308
    54 ****    -5.0850  19.6720  17.6039   Du        1 RES1  18.8949
    55 ****    -3.1624  21.6775  19.2556   Du        1 RES1  18.8949
    56 ****    -3.6784  20.5883  20.3573   Du        1 RES1  17.4589
    57 ****    -5.7578  19.1263  22.0670   Du        1 RES1  17.7454
    58 ****    -5.2580  19.0172  20.4122   Du        1 RES1  17.8561
    59 ****    -7.6968  18.4320  19.6555   Du        1 RES1  17.7454
    60 ****    -7.7464  19.7619  18.7091   Du        1 RES1  18.3627
    61 ****    -7.7406  22.6595  24.7085   Du        1 RES1   6.6784
    62 ****    -8.9200  21.4848  24.2302   Du        1 RES1   6.7936
    63 ****    -7.0518  23.5006  22.4350   Du        1 RES1  17.2681
    64 ****    -6.4071  22.5112  21.3072   Du        1 RES1  19.6577
    65 ****    -6.1878  20.3364  24.6329   Du        1 RES1   5.3644
    66 ****    -5.0909  21.0654  23.6676   Du        1 RES1  14.7068
    67 ****    -4.4226  25.0184  17.7806   Du        1 RES1  18.0953
    68 ****    -5.9024  24.8998  17.1004   Du        1 RES1  22.1639
    69 ****    -2.1560  25.5077  16.8091   Du        1 RES1  18.9558
    70 ****    -3.2763  26.6733  16.5788   Du        1 RES1  16.5684
@<TRIPOS>BOND
     1     1     2   ar
     2     2     3   ar
     3     3     4   ar
     4     4     5   ar
     5     5     6   ar
     6     1     6   ar
     7     5     7   ar
     8     7     8   ar
     9     8     9   ar
    10     4     9   ar
    11     7    10    1
    12    10    11    1
    13    11    12    1
    14    12    13    1
    15    13    14    1
    16    10    14    1
    17    13    15    1
    18    15    16    1
    19    16    17    1
    20    17    18    2
    21    17    19    1
    22    17    20    1
    23    20    21    1
    24    21    22    2
    25    21    23    1
    26    21    24    1
    27    24    25    1
    28    25    26    2
    29    25    27    1
    30    25    28    1
    31    12    29    1
    32    11    30    1
    33     3    31    1
    34     1    32    1
    35     8    33    1
    36    10    34    1
    37    11    35    1
    38    12    36    1
    39    13    37    1
    40    15    38    1
    41    15    39    1
    42    19    40    1
    43    23    41    1
    44    27    42    1
    45    28    43    1
    46    29    44    1
    47    30    45    1
    48    31    46    1
    49    31    47    1
    50     2    48    1
    51     6    49    1
    52     9    50    1
    53    14    51    1
    54    14    52    1
    55    18    53    1
    56    18    54    1
    57    19    55    1
    58    19    56    1
    59    22    57    1
    60    22    58    1
    61    23    59    1
    62    23    60    1
    63    26    61    1
    64    26    62    1
    65    27    63    1
    66    27    64    1
    67    28    65    1
    68    28    66    1
    69    29    67    1
    70    29    68    1
    71    30    69    1
    72    30    70    1
@<TRIPOS>SUBSTRUCTURE
     1 RES1        1 GROUP             0 ****  ****    0  
@<TRIPOS>MOLECULE
11.5177217829
    70    72     1     0     0
SMALL
USER_CHARGES
****
Generated from the CSD

@<TRIPOS>ATOM
     1 C       -4.2061  26.2033  17.2881   C.ar      1 RES1  16.9663
     2 N       -3.0487  26.2838  16.5917   N.ar      1 RES1  16.5684
     3 C       -2.5124  25.2067  15.9797   C.ar      1 RES1  20.4521
     4 C       -3.2022  24.0028  16.0936   C.ar      1 RES1  22.1639
     5 C       -4.3881  23.9519  16.8084   C.ar      1 RES1  22.1639
     6 N       -4.8919  25.0462  17.4038   N.ar      1 RES1  19.9202
     7 N       -4.8202  22.6811  16.7440   N.ar      1 RES1  22.1639
     8 C       -3.9436  21.9474  16.0283   C.ar      1 RES1  22.1639
     9 N       -2.9508  22.7671  15.6231   N.ar      1 RES1  22.1639
    10 C       -5.9413  22.2227  17.3665   C.3       1 RES1  19.9202
    11 C       -5.7426  22.1695  18.8984   C.3       1 RES1  18.5145
    12 C       -6.7590  23.1957  19.4296   C.3       1 RES1  19.6577
    13 C       -7.8258  23.1627  18.3205   C.3       1 RES1  19.6577
    14 O       -7.0058  23.1595  17.1493   O.3       1 RES1  18.8521
    15 C       -8.7483  24.3984  18.3258   C.3       1 RES1  17.2915
    16 O       -8.0232  25.5231  17.8190   O.3       1 RES1  13.7504
    17 P       -8.0324  26.9366  18.5683   P.3       1 RES1  15.8881
    18 O       -8.2679  26.7227  20.0240   O.2       1 RES1  17.2915
    19 O       -6.6112  27.6437  18.3697   O.3       1 RES1  15.8579
    20 O       -9.1765  27.8757  17.9576   O.3       1 RES1  20.1837
    21 P       -9.0346  28.0017  16.3678   P.3       1 RES1  17.2070
    22 O       -7.8655  27.1915  15.9241   O.2       1 RES1  18.5576
    23 O       -8.7906  29.5323  15.9704   O.3       1 RES1  15.6700
    24 O      -10.3614  27.4519  15.6604   O.3       1 RES1  18.9224
    25 P      -11.4820  27.0866  16.7439   P.3       1 RES1  16.8341
    26 O      -10.9791  26.0002  17.6308   O.2       1 RES1  17.2915
    27 O      -12.8134  26.5892  16.0092   O.3       1 RES1  18.2409
    28 O      -11.8093  28.3756  17.6335   O.3       1 RES1   4.8217
    29 O       -7.2678  22.8126  20.7127   O.3       1 RES1   0.0000
    30 O       -6.0809  20.8608  19.3730   O.3       1 RES1   3.4726
    31 N       -1.3567  25.2890  15.2863   N.pl3     1 RES1  28.7233
    32 H1      -4.5950  27.0941  17.7680   H         1 RES1   0.0000
    33 H2      -4.0186  20.8871  15.8151   H         1 RES1   0.0000
    34 H3      -6.2375  21.2299  16.9950   H         1 RES1   0.0000
    35 H4      -4.7146  22.4277  19.1974   H         1 RES1   0.0000
    36 H5      -6.2824  24.1870  19.4595   H         1 RES1   0.0000
    37 H6      -8.4042  22.2281  18.3848   H         1 RES1   0.0000
    38 H7      -9.1084  24.6072  19.3439   H         1 RES1   0.0000
    39 H8      -9.6099  24.2034  17.6700   H         1 RES1   0.0000
    40 H9      -6.6905  28.3385  17.7268   H         1 RES1   0.0000
    41 H10     -8.9753  30.0874  16.7189   H         1 RES1   0.0000
    42 H11    -12.7070  26.6749  15.0691   H         1 RES1   0.0000
    43 H12    -11.0594  28.9588  17.6331   H         1 RES1   0.0000
    44 H13     -7.7185  21.9780  20.6598   H         1 RES1   0.0000
    45 H14     -6.5132  20.3630  18.6884   H         1 RES1   0.0000
    46 H15     -0.8597  26.1885  15.2129   H         1 RES1   0.0000
    47 H16     -0.9711  24.4503  14.8294   H         1 RES1   0.0000
    48 ****    -2.5785  27.1641  16.5288   Du        1 RES1  14.0268
    49 ****    -5.7491  25.0047  17.9172   Du        1 RES1  18.0953
    50 ****    -2.1626  22.5015  15.0680   Du        1 RES1  19.9046
    51 ****    -6.6297  24.0730  16.9940   Du        1 RES1  20.8922
    52 ****    -7.5469  22.8825  16.3552   Du        1 RES1  20.3612
    53 ****    -7.5712  26.2723  20.5823   Du        1 RES1  14.7380
    54 ****    -9.1227  27.0294  20.4426   Du        1 RES1  16.9747
    55 ****    -5.9449  26.9693  18.0514   Du        1 RES1  14.5634
    56 ****    -6.3057  28.0286  19.2406   Du        1 RES1  14.5634
    57 ****    -6.9436  27.4390  16.2222   Du        1 RES1  14.5992
    58 ****    -8.0028  26.4003  15.3282   Du        1 RES1  20.3182
    59 ****    -9.3957  29.7808  15.2140   Du        1 RES1  18.9679
    60 ****    -7.8387  29.6563  15.6903   Du        1 RES1  18.1680
    61 ****   -11.6156  25.4971  18.2154   Du        1 RES1  17.2915
    62 ****   -10.0051  25.7740  17.6414   Du        1 RES1  17.2915
    63 ****   -13.5877  27.1463  16.3092   Du        1 RES1  16.8341
    64 ****   -12.9832  25.6310  16.2395   Du        1 RES1  16.5323
    65 ****   -12.0102  28.0915  18.5709   Du        1 RES1  18.1238
    66 ****   -12.6019  28.8514  17.2522   Du        1 RES1  18.1238
    67 ****    -7.9072  23.5111  21.0342   Du        1 RES1  19.6577
    68 ****    -6.5074  22.7348  21.3575   Du        1 RES1  19.6577
    69 ****    -6.6944  20.9431  20.1584   Du        1 RES1  19.6577
    70 ****    -5.2464  20.3845  19.6503   Du        1 RES1  18.8949
@<TRIPOS>BOND
     1     1     2   ar
     2     2     3   ar
     3     3     4   ar
     4     4     5   ar
     5     5     6   ar
     6     1     6   ar
     7     5     7   ar
     8     7     8   ar
     9     8     9   ar
    10     4     9   ar
    11     7    10    1
    12    10    11    1
    13    11    12    1
    14    12    13    1
    15    13    14    1
    16    10    14    1
    17    13    15    1
    18    15    16    1
    19    16    17    1
    20    17    18    2
    21    17    19    1
    22    17    20    1
    23    20    21    1
    24    21    22    2
    25    21    23    1
    26    21    24    1
    27    24    25    1
    28    25    26    2
    29    25    27    1
    30    25    28    1
    31    12    29    1
    32    11    30    1
    33     3    31    1
    34     1    32    1
    35     8    33    1
    36    10    34    1
    37    11    35    1
    38    12    36    1
    39    13    37    1
    40    15    38    1
    41    15    39    1
    42    19    40    1
    43    23    41    1
    44    27    42    1
    45    28    43    1
    46    29    44    1
    47    30    45    1
    48    31    46    1
    49    31    47    1
    50     2    48    1
    51     6    49    1
    52     9    50    1
    53    14    51    1
    54    14    52    1
    55    18    53    1
    56    18    54    1
    57    19    55    1
    58    19    56    1
    59    22    57    1
    60    22    58    1
    61    23    59    1
    62    23    60    1
    63    26    61    1
    64    26    62    1
    65    27    63    1
    66    27    64    1
    67    28    65    1
    68    28    66    1
    69    29    67    1
    70    29    68    1
    71    30    69    1
    72    30    70    1
@<TRIPOS>SUBSTRUCTURE
     1 RES1        1 GROUP             0 ****  ****    0  
@<TRIPOS>MOLECULE
11.2833576916
    70    72     1     0     0
SMALL
USER_CHARGES
****
Generated from the CSD

@<TRIPOS>ATOM
     1 C        0.0958  25.5085  13.1239   C.ar      1 RES1  23.7632
     2 N        0.0397  24.9908  11.8749   N.ar      1 RES1  24.7556
     3 C       -0.8406  24.0211  11.5476   C.ar      1 RES1  22.7847
     4 C       -1.6941  23.5730  12.5521   C.ar      1 RES1  22.7847
     5 C       -1.6175  24.1259  13.8203   C.ar      1 RES1  20.3442
     6 N       -0.7280  25.0910  14.1086   N.ar      1 RES1  22.9223
     7 N       -2.5494  23.5072  14.5650   N.ar      1 RES1  20.4521
     8 C       -3.1878  22.5902  13.8096   C.ar      1 RES1  22.1639
     9 N       -2.6624  22.6383  12.5673   N.ar      1 RES1  20.7642
    10 C       -2.7522  23.7478  15.8899   C.3       1 RES1  22.1639
    11 C       -3.1049  25.2324  16.1364   C.3       1 RES1  22.1639
    12 C       -4.5430  25.1754  16.6813   C.3       1 RES1  22.1639
    13 C       -4.5647  23.7774  17.3247   C.3       1 RES1  19.9202
    14 O       -3.8987  23.0030  16.3243   O.3       1 RES1  22.1639
    15 C       -5.9898  23.2373  17.5603   C.3       1 RES1  19.9202
    16 O       -5.9046  21.8917  18.0398   O.3       1 RES1  17.6622
    17 P       -6.0610  21.5410  19.5928   P.3       1 RES1  19.6577
    18 O       -4.9734  20.6078  20.0007   O.2       1 RES1  18.6308
    19 O       -5.9392  22.8873  20.4483   O.3       1 RES1   4.5457
    20 O       -7.4905  20.8731  19.8648   O.3       1 RES1  16.8273
    21 P       -8.5125  21.9305  20.4981   P.3       1 RES1  19.6577
    22 O       -8.5960  23.1157  19.5989   O.2       1 RES1  19.6577
    23 O       -7.9798  22.3991  21.9323   O.3       1 RES1   0.0000
    24 O       -9.9623  21.2659  20.6373   O.3       1 RES1  12.0965
    25 P      -11.0146  22.3041  21.2521   P.3       1 RES1   5.8544
    26 O      -10.9498  23.5843  20.4927   O.2       1 RES1  17.2915
    27 O      -10.6706  22.5882  22.7886   O.3       1 RES1   0.0000
    28 O      -12.4928  21.7033  21.1350   O.3       1 RES1   0.0000
    29 O       -4.7903  26.2309  17.6177   O.3       1 RES1  15.9364
    30 O       -2.2280  25.7662  17.1357   O.3       1 RES1  23.3324
    31 N       -0.8941  23.5050  10.3009   N.pl3     1 RES1   9.9366
    32 H1       0.8238  26.2816  13.3412   H         1 RES1   0.0000
    33 H2      -3.9814  21.9288  14.1384   H         1 RES1   0.0000
    34 H3      -1.8758  23.4683  16.4944   H         1 RES1   0.0000
    35 H4      -3.0451  25.8360  15.2172   H         1 RES1   0.0000
    36 H5      -5.2463  25.2079  15.8355   H         1 RES1   0.0000
    37 H6      -3.9778  23.7846  18.2562   H         1 RES1   0.0000
    38 H7      -6.5745  23.2715  16.6293   H         1 RES1   0.0000
    39 H8      -6.4853  23.8577  18.3219   H         1 RES1   0.0000
    40 H9      -5.0666  23.2488  20.3470   H         1 RES1   0.0000
    41 H10     -7.0441  22.2453  21.9885   H         1 RES1   0.0000
    42 H11    -11.2598  23.2519  23.1273   H         1 RES1   0.0000
    43 H12    -13.0840  22.2094  21.6798   H         1 RES1   0.0000
    44 H13     -4.5230  25.9734  18.4922   H         1 RES1   0.0000
    45 H14     -1.6296  26.3947  16.7480   H         1 RES1   0.0000
    46 H15     -0.2543  23.8489   9.5703   H         1 RES1   0.0000
    47 H16     -1.5764  22.7658  10.0800   H         1 RES1   0.0000
    48 ****     0.6666  25.3356  11.1762   Du        1 RES1  24.9244
    49 ****    -0.6777  25.4880  15.0250   Du        1 RES1  22.9223
    50 ****    -2.9446  22.0753  11.7905   Du        1 RES1  20.7642
    51 ****    -4.5135  22.8425  15.5521   Du        1 RES1  22.1639
    52 ****    -3.6100  22.1259  16.7083   Du        1 RES1  22.1639
    53 ****    -4.8322  19.7546  19.4985   Du        1 RES1  18.8949
    54 ****    -4.3847  20.8346  20.7765   Du        1 RES1  17.4529
    55 ****    -6.1065  22.6854  21.4133   Du        1 RES1  19.6577
    56 ****    -6.6143  23.5502  20.1247   Du        1 RES1  19.6577
    57 ****    -9.2259  23.8622  19.8130   Du        1 RES1  17.6175
    58 ****    -8.0221  23.1645  18.7815   Du        1 RES1  19.6577
    59 ****    -8.4466  21.8789  22.6475   Du        1 RES1  17.7299
    60 ****    -8.1652  23.3741  22.0544   Du        1 RES1  18.2795
    61 ****   -11.7650  23.9333  20.0306   Du        1 RES1  17.0445
    62 ****   -10.0911  24.0946  20.4453   Du        1 RES1  17.2915
    63 ****    -9.7268  22.9099  22.8650   Du        1 RES1   8.9288
    64 ****   -10.7792  21.7455  23.3159   Du        1 RES1   0.0000
    65 ****   -12.4909  20.7510  21.4403   Du        1 RES1   0.2041
    66 ****   -12.7963  21.7475  20.1832   Du        1 RES1   1.0102
    67 ****    -5.7674  26.4435  17.6223   Du        1 RES1  14.8542
    68 ****    -4.2740  27.0418  17.3421   Du        1 RES1  12.2258
    69 ****    -1.7029  25.0206  17.5461   Du        1 RES1  16.4062
    70 ****    -2.7707  26.2200  17.8424   Du        1 RES1  16.4942
@<TRIPOS>BOND
     1     1     2   ar
     2     2     3   ar
     3     3     4   ar
     4     4     5   ar
     5     5     6   ar
     6     1     6   ar
     7     5     7   ar
     8     7     8   ar
     9     8     9   ar
    10     4     9   ar
    11     7    10    1
    12    10    11    1
    13    11    12    1
    14    12    13    1
    15    13    14    1
    16    10    14    1
    17    13    15    1
    18    15    16    1
    19    16    17    1
    20    17    18    2
    21    17    19    1
    22    17    20    1
    23    20    21    1
    24    21    22    2
    25    21    23    1
    26    21    24    1
    27    24    25    1
    28    25    26    2
    29    25    27    1
    30    25    28    1
    31    12    29    1
    32    11    30    1
    33     3    31    1
    34     1    32    1
    35     8    33    1
    36    10    34    1
    37    11    35    1
    38    12    36    1
    39    13    37    1
    40    15    38    1
    41    15    39    1
    42    19    40    1
    43    23    41    1
    44    27    42    1
    45    28    43    1
    46    29    44    1
    47    30    45    1
    48    31    46    1
    49    31    47    1
    50     2    48    1
    51     6    49    1
    52     9    50    1
    53    14    51    1
    54    14    52    1
    55    18    53    1
    56    18    54    1
    57    19    55    1
    58    19    56    1
    59    22    57    1
    60    22    58    1
    61    23    59    1
    62    23    60    1
    63    26    61    1
    64    26    62    1
    65    27    63    1
    66    27    64    1
    67    28    65    1
    68    28    66    1
    69    29    67    1
    70    29    68    1
    71    30    69    1
    72    30    70    1
@<TRIPOS>SUBSTRUCTURE
     1 RES1        1 GROUP             0 ****  ****    0  
@<TRIPOS>MOLECULE
10.9357040796
    70    72     1     0     0
SMALL
USER_CHARGES
****
Generated from the CSD

@<TRIPOS>ATOM
     1 C       -1.3616  25.2398  14.3248   C.ar      1 RES1  22.9223
     2 N       -2.6894  25.1013  14.5453   N.ar      1 RES1  22.9223
     3 C       -3.5257  24.6558  13.5838   C.ar      1 RES1  23.3959
     4 C       -2.9639  24.3418  12.3492   C.ar      1 RES1  22.7847
     5 C       -1.5999  24.4882  12.1545   C.ar      1 RES1  22.7847
     6 N       -0.7984  24.9342  13.1365   N.ar      1 RES1  22.9223
     7 N       -1.3512  24.1133  10.8882   N.ar      1 RES1  22.9654
     8 C       -2.5072  23.7528  10.2943   C.ar      1 RES1  23.9662
     9 N       -3.4984  23.8885  11.2002   N.ar      1 RES1  23.3959
    10 C       -0.1214  24.1595  10.3052   C.3       1 RES1  23.9662
    11 C        0.7185  25.3260  10.8737   C.3       1 RES1  24.9244
    12 C        1.8907  24.6175  11.5754   C.3       1 RES1  22.4505
    13 C        1.9793  23.3113  10.7660   C.3       1 RES1  24.5771
    14 O        0.5970  22.9659  10.6476   O.3       1 RES1  24.7769
    15 C        2.7506  22.1934  11.4963   C.3       1 RES1  19.8062
    16 O        3.4971  21.4389  10.5365   O.3       1 RES1   0.0000
    17 P        3.6573  19.8515  10.6553   P.3       1 RES1  10.2736
    18 O        4.6542  19.3791   9.6538   O.2       1 RES1   3.8983
    19 O        4.1807  19.4865  12.1223   O.3       1 RES1   0.0000
    20 O        2.2464  19.1360  10.4077   O.3       1 RES1   0.0000
    21 P        1.7261  19.3836   8.9139   P.3       1 RES1  17.1234
    22 O        2.4593  18.4709   7.9923   O.2       1 RES1   3.9835
    23 O        2.0159  20.8988   8.4888   O.3       1 RES1   0.0000
    24 O        0.1571  19.0764   8.8291   O.3       1 RES1  15.8388
    25 P       -0.4524  18.7898  10.2814   P.3       1 RES1  16.4379
    26 O        0.2796  17.6555  10.9116   O.2       1 RES1   1.8148
    27 O       -2.0021  18.4107  10.1605   O.3       1 RES1   6.2566
    28 O       -0.2878  20.0900  11.1991   O.3       1 RES1  17.9981
    29 O        3.0883  25.4011  11.5140   O.3       1 RES1  26.1099
    30 O        1.2116  26.1240   9.7909   O.3       1 RES1  26.1099
    31 N       -4.8507  24.5195  13.8055   N.pl3     1 RES1  19.5721
    32 H1      -0.7303  25.6071  15.1257   H         1 RES1   0.0000
    33 H2      -2.6240  23.4149   9.2708   H         1 RES1   0.0000
    34 H3      -0.1917  24.2506   9.2105   H         1 RES1   0.0000
    35 H4       0.1461  25.9516  11.5764   H         1 RES1   0.0000
    36 H5       1.6024  24.3943  12.6136   H         1 RES1   0.0000
    37 H6       2.4091  23.5144   9.7730   H         1 RES1   0.0000
    38 H7       2.0556  21.5352  12.0382   H         1 RES1   0.0000
    39 H8       3.4489  22.6509  12.2130   H         1 RES1   0.0000
    40 H9       5.1251  19.3848  12.1052   H         1 RES1   0.0000
    41 H10      1.7210  21.0396   7.5969   H         1 RES1   0.0000
    42 H11     -2.1096  17.4750  10.2833   H         1 RES1   0.0000
    43 H12     -0.6453  19.9157  12.0618   H         1 RES1   0.0000
    44 H13      3.0202  26.1631  12.0773   H         1 RES1   0.0000
    45 H14      0.5298  26.2578   9.1424   H         1 RES1   0.0000
    46 H15     -5.2488  24.7570  14.7255   H         1 RES1   0.0000
    47 H16     -5.4648  24.1771  13.0529   H         1 RES1   0.0000
    48 ****    -3.0608  25.3350  15.4439   Du        1 RES1  20.7565
    49 ****     0.1858  25.0365  12.9915   Du        1 RES1  22.2897
    50 ****    -4.4653  23.6867  11.0442   Du        1 RES1  23.3959
    51 ****     0.2607  22.6031  11.5166   Du        1 RES1  22.4505
    52 ****     0.4776  22.2788   9.9310   Du        1 RES1  24.7769
    53 ****     4.4510  18.5836   9.0829   Du        1 RES1   1.9394
    54 ****     5.5264  19.8575   9.5524   Du        1 RES1   5.8662
    55 ****     3.7587  18.6315  12.4237   Du        1 RES1   6.8825
    56 ****     3.9359  20.2205  12.7559   Du        1 RES1  10.0549
    57 ****     2.7783  17.5812   8.3188   Du        1 RES1   0.0000
    58 ****     2.6323  18.7480   7.0471   Du        1 RES1   0.8391
    59 ****     2.9977  21.0794   8.5476   Du        1 RES1  18.9477
    60 ****     1.5259  21.5169   9.1034   Du        1 RES1  22.9349
    61 ****     1.2735  17.5905  10.8222   Du        1 RES1   2.4136
    62 ****    -0.2229  16.9591  11.4240   Du        1 RES1   0.4815
    63 ****    -2.3388  18.6689   9.2549   Du        1 RES1   8.1579
    64 ****    -2.5209  18.9007  10.8611   Du        1 RES1  14.0370
    65 ****    -0.7783  20.8559  10.7834   Du        1 RES1  21.2093
    66 ****     0.6820  20.3201  11.2805   Du        1 RES1  19.2957
    67 ****     3.2361  25.7016  10.5717   Du        1 RES1  25.4643
    68 ****     3.8622  24.8416  11.8107   Du        1 RES1  21.4406
    69 ****     1.9863  25.6577   9.3636   Du        1 RES1  28.4929
    70 ****     1.5098  27.0108  10.1439   Du        1 RES1  26.0179
@<TRIPOS>BOND
     1     1     2   ar
     2     2     3   ar
     3     3     4   ar
     4     4     5   ar
     5     5     6   ar
     6     1     6   ar
     7     5     7   ar
     8     7     8   ar
     9     8     9   ar
    10     4     9   ar
    11     7    10    1
    12    10    11    1
    13    11    12    1
    14    12    13    1
    15    13    14    1
    16    10    14    1
    17    13    15    1
    18    15    16    1
    19    16    17    1
    20    17    18    2
    21    17    19    1
    22    17    20    1
    23    20    21    1
    24    21    22    2
    25    21    23    1
    26    21    24    1
    27    24    25    1
    28    25    26    2
    29    25    27    1
    30    25    28    1
    31    12    29    1
    32    11    30    1
    33     3    31    1
    34     1    32    1
    35     8    33    1
    36    10    34    1
    37    11    35    1
    38    12    36    1
    39    13    37    1
    40    15    38    1
    41    15    39    1
    42    19    40    1
    43    23    41    1
    44    27    42    1
    45    28    43    1
    46    29    44    1
    47    30    45    1
    48    31    46    1
    49    31    47    1
    50     2    48    1
    51     6    49    1
    52     9    50    1
    53    14    51    1
    54    14    52    1
    55    18    53    1
    56    18    54    1
    57    19    55    1
    58    19    56    1
    59    22    57    1
    60    22    58    1
    61    23    59    1
    62    23    60    1
    63    26    61    1
    64    26    62    1
    65    27    63    1
    66    27    64    1
    67    28    65    1
    68    28    66    1
    69    29    67    1
    70    29    68    1
    71    30    69    1
    72    30    70    1
@<TRIPOS>SUBSTRUCTURE
     1 RES1        1 GROUP             0 ****  ****    0  
@<TRIPOS>MOLECULE
10.2204962598
    70    72     1     0     0
SMALL
USER_CHARGES
****
Generated from the CSD

@<TRIPOS>ATOM
     1 C       -3.3819  22.8189  13.6743   C.ar      1 RES1  22.9512
     2 N       -3.2538  23.6445  14.7388   N.ar      1 RES1  22.1639
     3 C       -2.3161  24.6149  14.7754   C.ar      1 RES1  20.6336
     4 C       -1.4819  24.7337  13.6671   C.ar      1 RES1  20.7464
     5 C       -1.6404  23.8778  12.5891   C.ar      1 RES1  22.7847
     6 N       -2.5865  22.9235  12.5886   N.ar      1 RES1  21.5516
     7 N       -0.7111  24.2263  11.6832   N.ar      1 RES1  22.7847
     8 C        0.0181  25.2537  12.1644   C.ar      1 RES1  24.8275
     9 N       -0.4643  25.5684  13.3851   N.ar      1 RES1  25.0938
    10 C       -0.5203  23.5832  10.4981   C.3       1 RES1  23.9662
    11 C        0.2277  24.4861   9.4911   C.3       1 RES1  23.9662
    12 C        1.5580  23.7466   9.2629   C.3       1 RES1  25.3539
    13 C        1.1445  22.2915   9.5468   C.3       1 RES1  24.7769
    14 O        0.3404  22.4566  10.7175   O.3       1 RES1  24.7769
    15 C        2.3410  21.3653   9.8446   C.3       1 RES1  22.9349
    16 O        1.9261  20.0044   9.6910   O.3       1 RES1   0.0000
    17 P        1.5922  19.0796  10.9530   P.3       1 RES1  14.9492
    18 O        2.8324  18.3834  11.3975   O.2       1 RES1   5.2014
    19 O        1.0548  19.9981  12.1475   O.3       1 RES1   6.5346
    20 O        0.4672  18.0076  10.5673   O.3       1 RES1  15.8388
    21 P       -0.9763  18.6934  10.4689   P.3       1 RES1  10.2937
    22 O       -0.7995  20.1640  10.3072   O.2       1 RES1  19.2957
    23 O       -1.7978  18.4104  11.8125   O.3       1 RES1   6.3653
    24 O       -1.7674  18.1111   9.2046   O.3       1 RES1  15.8388
    25 P       -2.3402  16.6473   9.5086   P.3       1 RES1   0.0000
    26 O       -1.2132  15.7349   9.8510   O.2       1 RES1   0.0000
    27 O       -3.1023  16.0788   8.2218   O.3       1 RES1   0.0000
    28 O       -3.3518  16.7128  10.7464   O.3       1 RES1   4.7762
    29 O        2.0451  23.9445   7.9304   O.3       1 RES1   3.2342
    30 O       -0.5131  24.5416   8.2661   O.3       1 RES1   0.0000
    31 N       -2.1892  25.4368  15.8391   N.pl3     1 RES1  28.7233
    32 H1      -4.1459  22.0502  13.6931   H         1 RES1   0.0000
    33 H2       0.8464  25.7421  11.6637   H         1 RES1   0.0000
    34 H3      -1.4715  23.2450  10.0593   H         1 RES1   0.0000
    35 H4       0.3929  25.5027   9.8813   H         1 RES1   0.0000
    36 H5       2.2860  24.0816  10.0170   H         1 RES1   0.0000
    37 H6       0.5345  21.9063   8.7152   H         1 RES1   0.0000
    38 H7       2.7157  21.5344  10.8649   H         1 RES1   0.0000
    39 H8       3.1448  21.5777   9.1240   H         1 RES1   0.0000
    40 H9       0.4561  19.4961  12.6880   H         1 RES1   0.0000
    41 H10     -1.3008  18.7227  12.5594   H         1 RES1   0.0000
    42 H11     -4.0402  16.1629   8.3466   H         1 RES1   0.0000
    43 H12     -3.2064  15.9648  11.3136   H         1 RES1   0.0000
    44 H13      1.4952  23.4924   7.3013   H         1 RES1   0.0000
    45 H14     -0.7540  23.6659   7.9862   H         1 RES1   0.0000
    46 H15     -2.8154  25.3339  16.6506   H         1 RES1   0.0000
    47 H16     -1.4644  26.1686  15.8390   H         1 RES1   0.0000
    48 ****    -3.8698  23.5328  15.5186   Du        1 RES1  22.1639
    49 ****    -2.6980  22.3092  11.8074   Du        1 RES1  20.7642
    50 ****    -0.1238  26.2974  13.9788   Du        1 RES1  25.1226
    51 ****     0.9248  22.6237  11.5116   Du        1 RES1  22.4505
    52 ****    -0.2072  21.6346  10.8737   Du        1 RES1  22.9349
    53 ****     3.7182  18.8406  11.3181   Du        1 RES1   5.6727
    54 ****     2.7788  17.4591  11.7752   Du        1 RES1   3.8446
    55 ****     0.5773  20.7912  11.7693   Du        1 RES1  19.2957
    56 ****     1.8263  20.3074  12.7034   Du        1 RES1  12.7224
    57 ****    -1.6001  20.7592  10.2380   Du        1 RES1  21.2093
    58 ****     0.1197  20.5558  10.2680   Du        1 RES1  19.2957
    59 ****    -1.9566  17.4275  11.9053   Du        1 RES1   1.4736
    60 ****    -2.6756  18.8876  11.7732   Du        1 RES1  14.0370
    61 ****    -1.3343  14.7444   9.7856   Du        1 RES1   0.0000
    62 ****    -0.3358  16.1130  10.1462   Du        1 RES1   0.0000
    63 ****    -2.8681  15.1150   8.0944   Du        1 RES1   0.0000
    64 ****    -2.8256  16.5987   7.4136   Du        1 RES1   0.0000
    65 ****    -4.2931  16.6974  10.4089   Du        1 RES1   0.0000
    66 ****    -3.1958  17.5564  11.2603   Du        1 RES1   0.8854
    67 ****     2.9778  23.5898   7.8659   Du        1 RES1  25.3539
    68 ****     2.0454  24.9227   7.7229   Du        1 RES1  26.3439
    69 ****     0.0496  24.9707   7.5595   Du        1 RES1  23.9662
    70 ****    -1.3422  25.0829   8.4063   Du        1 RES1  24.9244
@<TRIPOS>BOND
     1     1     2   ar
     2     2     3   ar
     3     3     4   ar
     4     4     5   ar
     5     5     6   ar
     6     1     6   ar
     7     5     7   ar
     8     7     8   ar
     9     8     9   ar
    10     4     9   ar
    11     7    10    1
    12    10    11    1
    13    11    12    1
    14    12    13    1
    15    13    14    1
    16    10    14    1
    17    13    15    1
    18    15    16    1
    19    16    17    1
    20    17    18    2
    21    17    19    1
    22    17    20    1
    23    20    21    1
    24    21    22    2
    25    21    23    1
    26    21    24    1
    27    24    25    1
    28    25    26    2
    29    25    27    1
    30    25    28    1
    31    12    29    1
    32    11    30    1
    33     3    31    1
    34     1    32    1
    35     8    33    1
    36    10    34    1
    37    11    35    1
    38    12    36    1
    39    13    37    1
    40    15    38    1
    41    15    39    1
    42    19    40    1
    43    23    41    1
    44    27    42    1
    45    28    43    1
    46    29    44    1
    47    30    45    1
    48    31    46    1
    49    31    47    1
    50     2    48    1
    51     6    49    1
    52     9    50    1
    53    14    51    1
    54    14    52    1
    55    18    53    1
    56    18    54    1
    57    19    55    1
    58    19    56    1
    59    22    57    1
    60    22    58    1
    61    23    59    1
    62    23    60    1
    63    26    61    1
    64    26    62    1
    65    27    63    1
    66    27    64    1
    67    28    65    1
    68    28    66    1
    69    29    67    1
    70    29    68    1
    71    30    69    1
    72    30    70    1
@<TRIPOS>SUBSTRUCTURE
     1 RES1        1 GROUP             0 ****  ****    0  
@<TRIPOS>MOLECULE
8.25065166143
    70    72     1     0     0
SMALL
USER_CHARGES
****
Generated from the CSD

@<TRIPOS>ATOM
     1 C       -3.1360  23.0602  13.4515   C.ar      1 RES1  22.0667
     2 N       -3.2292  24.1536  14.2432   N.ar      1 RES1  22.1639
     3 C       -2.2496  25.0813  14.2899   C.ar      1 RES1  22.9223
     4 C       -1.1336  24.8674  13.4855   C.ar      1 RES1  22.9223
     5 C       -1.0687  23.7413  12.6807   C.ar      1 RES1  22.7847
     6 N       -2.0647  22.8395  12.6602   N.ar      1 RES1  21.5516
     7 N        0.1042  23.8040  12.0279   N.ar      1 RES1  22.6453
     8 C        0.7667  24.9162  12.4062   C.ar      1 RES1  20.5751
     9 N       -0.0025  25.5729  13.2999   N.ar      1 RES1  23.7632
    10 C        0.5531  22.8466  11.1698   C.3       1 RES1  23.3443
    11 C        0.7688  23.4277   9.7539   C.3       1 RES1  25.3539
    12 C        2.2860  23.2907   9.5354   C.3       1 RES1  25.3539
    13 C        2.6119  22.0890  10.4402   C.3       1 RES1  23.3462
    14 O        1.8469  22.4059  11.6058   O.3       1 RES1  22.4505
    15 C        4.1090  21.9816  10.7944   C.3       1 RES1  20.8701
    16 O        4.2611  21.1010  11.9121   O.3       1 RES1   0.0000
    17 P        4.9821  19.6799  11.7709   P.3       1 RES1   9.2669
    18 O        4.0345  18.6028  12.1732   O.2       1 RES1   5.8385
    19 O        5.4053  19.4570  10.2442   O.3       1 RES1   0.0000
    20 O        6.2915  19.6334  12.6912   O.3       1 RES1   0.0000
    21 P        7.4200  18.6989  12.0456   P.3       1 RES1   0.0000
    22 O        6.8472  17.3428  11.8157   O.2       1 RES1   0.2246
    23 O        8.6583  18.5794  13.0519   O.3       1 RES1   0.0000
    24 O        7.9007  19.3164  10.6489   O.3       1 RES1   0.0000
    25 P        8.5678  20.7570  10.8558   P.3       1 RES1   0.0000
    26 O        7.6039  21.6546  11.5523   O.2       1 RES1   1.0695
    27 O        8.9469  21.3944   9.4381   O.3       1 RES1   0.0000
    28 O        9.8866  20.6146  11.7504   O.3       1 RES1   0.0000
    29 O        2.5975  23.0591   8.1565   O.3       1 RES1   0.5437
    30 O        0.0663  22.6212   8.8007   O.3       1 RES1   0.0000
    31 N       -2.3440  26.1712  15.0815   N.pl3     1 RES1  28.7233
    32 H1      -3.9455  22.3392  13.4520   H         1 RES1   0.0000
    33 H2       1.7442  25.2300  12.0578   H         1 RES1   0.0000
    34 H3      -0.1348  21.9888  11.1191   H         1 RES1   0.0000
    35 H4       0.4430  24.4769   9.6769   H         1 RES1   0.0000
    36 H5       2.7845  24.1933   9.9198   H         1 RES1   0.0000
    37 H6       2.2397  21.1611   9.9791   H         1 RES1   0.0000
    38 H7       4.5212  22.9728  11.0340   H         1 RES1   0.0000
    39 H8       4.6504  21.5629   9.9330   H         1 RES1   0.0000
    40 H9       6.3101  19.1703  10.2053   H         1 RES1   0.0000
    41 H10      8.3559  18.7084  13.9431   H         1 RES1   0.0000
    42 H11      8.7384  22.3211   9.4418   H         1 RES1   0.0000
    43 H12      9.7507  21.0470  12.5853   H         1 RES1   0.0000
    44 H13      1.8405  22.7195   7.6937   H         1 RES1   0.0000
    45 H14      0.5947  22.4970   8.0205   H         1 RES1   0.0000
    46 H15     -3.1774  26.3128  15.6703   H         1 RES1   0.0000
    47 H16     -1.5808  26.8626  15.0966   H         1 RES1   0.0000
    48 ****    -4.0448  24.2777  14.8083   Du        1 RES1  22.1639
    49 ****    -2.0139  22.0292  12.0764   Du        1 RES1  20.7642
    50 ****     0.2286  26.4365  13.7479   Du        1 RES1  25.1226
    51 ****     2.2985  23.1332  12.1225   Du        1 RES1  18.8899
    52 ****     1.7540  21.5949  12.1834   Du        1 RES1  20.1738
    53 ****     3.8760  18.4124  13.1421   Du        1 RES1   6.8825
    54 ****     3.5570  18.0702  11.4744   Du        1 RES1   3.8498
    55 ****     5.3057  20.3158   9.7419   Du        1 RES1   9.2207
    56 ****     4.8169  18.7604   9.8335   Du        1 RES1   3.7438
    57 ****     7.2439  16.7437  11.1203   Du        1 RES1   0.0000
    58 ****     6.0659  17.0317  12.3570   Du        1 RES1   0.9308
    59 ****     9.3391  19.2764  12.8268   Du        1 RES1   0.0000
    60 ****     9.0699  17.6720  12.9676   Du        1 RES1   0.0000
    61 ****     7.5381  22.6174  11.2900   Du        1 RES1   2.0612
    62 ****     7.0228  21.2943  12.2820   Du        1 RES1   3.3713
    63 ****     8.4251  20.9382   8.7172   Du        1 RES1   1.6055
    64 ****     9.9251  21.2733   9.2690   Du        1 RES1   0.0000
    65 ****    10.6583  21.0391  11.2768   Du        1 RES1   0.0000
    66 ****    10.0821  19.6461  11.9045   Du        1 RES1   0.0000
    67 ****     3.3440  22.3965   8.0955   Du        1 RES1  24.7769
    68 ****     2.8809  23.9204   7.7348   Du        1 RES1  25.4643
    69 ****    -0.7889  23.0753   8.5511   Du        1 RES1  23.9662
    70 ****    -0.1356  21.7303   9.2076   Du        1 RES1  22.9349
@<TRIPOS>BOND
     1     1     2   ar
     2     2     3   ar
     3     3     4   ar
     4     4     5   ar
     5     5     6   ar
     6     1     6   ar
     7     5     7   ar
     8     7     8   ar
     9     8     9   ar
    10     4     9   ar
    11     7    10    1
    12    10    11    1
    13    11    12    1
    14    12    13    1
    15    13    14    1
    16    10    14    1
    17    13    15    1
    18    15    16    1
    19    16    17    1
    20    17    18    2
    21    17    19    1
    22    17    20    1
    23    20    21    1
    24    21    22    2
    25    21    23    1
    26    21    24    1
    27    24    25    1
    28    25    26    2
    29    25    27    1
    30    25    28    1
    31    12    29    1
    32    11    30    1
    33     3    31    1
    34     1    32    1
    35     8    33    1
    36    10    34    1
    37    11    35    1
    38    12    36    1
    39    13    37    1
    40    15    38    1
    41    15    39    1
    42    19    40    1
    43    23    41    1
    44    27    42    1
    45    28    43    1
    46    29    44    1
    47    30    45    1
    48    31    46    1
    49    31    47    1
    50     2    48    1
    51     6    49    1
    52     9    50    1
    53    14    51    1
    54    14    52    1
    55    18    53    1
    56    18    54    1
    57    19    55    1
    58    19    56    1
    59    22    57    1
    60    22    58    1
    61    23    59    1
    62    23    60    1
    63    26    61    1
    64    26    62    1
    65    27    63    1
    66    27    64    1
    67    28    65    1
    68    28    66    1
    69    29    67    1
    70    29    68    1
    71    30    69    1
    72    30    70    1
@<TRIPOS>SUBSTRUCTURE
     1 RES1        1 GROUP             0 ****  ****    0  
@<TRIPOS>MOLECULE
7.94000386145
    70    72     1     0     0
SMALL
USER_CHARGES
****
Generated from the CSD

@<TRIPOS>ATOM
     1 C       -2.6520  22.7992  12.9990   C.ar      1 RES1  21.4508
     2 N       -2.9574  23.8515  13.7930   N.ar      1 RES1  22.1639
     3 C       -2.0889  24.8654  13.9926   C.ar      1 RES1  22.9223
     4 C       -0.8595  24.7853  13.3441   C.ar      1 RES1  22.9223
     5 C       -0.5770  23.6984  12.5326   C.ar      1 RES1  22.7847
     6 N       -1.4678  22.7076  12.3573   N.ar      1 RES1  20.7642
     7 N        0.6610  23.8937  12.0477   N.ar      1 RES1  21.6459
     8 C        1.1543  25.0500  12.5361   C.ar      1 RES1  20.5751
     9 N        0.2114  25.6004  13.3296   N.ar      1 RES1  23.7632
    10 C        1.3128  23.0126  11.2394   C.3       1 RES1  23.3443
    11 C        2.6828  23.5749  10.7968   C.3       1 RES1  24.5771
    12 C        3.6934  22.6042  11.4330   C.3       1 RES1  18.2407
    13 C        2.8570  21.3150  11.5197   C.3       1 RES1  19.2073
    14 O        1.6086  21.8275  11.9919   O.3       1 RES1  20.1738
    15 C        3.4258  20.2859  12.5175   C.3       1 RES1  10.3522
    16 O        2.4935  19.2095  12.6586   O.3       1 RES1   0.0000
    17 P        2.9776  17.6923  12.8111   P.3       1 RES1   3.8446
    18 O        1.7874  16.8016  12.9117   O.2       1 RES1   2.5162
    19 O        3.8270  17.2815  11.5192   O.3       1 RES1   0.0000
    20 O        3.8943  17.5356  14.1144   O.3       1 RES1   0.0000
    21 P        4.3265  16.0103  14.3382   P.3       1 RES1   0.3190
    22 O        4.8751  15.4740  13.0609   O.2       1 RES1   0.0000
    23 O        3.0477  15.1466  14.7611   O.3       1 RES1   0.0000
    24 O        5.4502  15.9271  15.4755   O.3       1 RES1   0.0000
    25 P        5.8355  14.4060  15.7935   P.3       1 RES1   0.0000
    26 O        6.3153  13.7449  14.5475   O.2       1 RES1   0.0000
    27 O        4.5554  13.6199  16.3443   O.3       1 RES1   0.0000
    28 O        7.0024  14.3650  16.8873   O.3       1 RES1   0.0000
    29 O        4.8653  22.4623  10.6214   O.3       1 RES1   5.2133
    30 O        2.7804  23.5103   9.3689   O.3       1 RES1  17.6759
    31 N       -2.3952  25.9140  14.7863   N.pl3     1 RES1  28.7233
    32 H1      -3.3795  22.0054  12.8739   H         1 RES1   0.0000
    33 H2       2.1342  25.4663  12.3313   H         1 RES1   0.0000
    34 H3       0.7140  22.7513  10.3535   H         1 RES1   0.0000
    35 H4       2.8435  24.6083  11.1419   H         1 RES1   0.0000
    36 H5       3.9392  22.9584  12.4454   H         1 RES1   0.0000
    37 H6       2.7362  20.8786  10.5162   H         1 RES1   0.0000
    38 H7       3.6118  20.7567  13.4940   H         1 RES1   0.0000
    39 H8       4.3723  19.8894  12.1207   H         1 RES1   0.0000
    40 H9       4.3341  16.5009  11.7090   H         1 RES1   0.0000
    41 H10      2.2911  15.7162  14.8357   H         1 RES1   0.0000
    42 H11      4.4488  13.7988  17.2711   H         1 RES1   0.0000
    43 H12      7.7926  14.0139  16.4938   H         1 RES1   0.0000
    44 H13      5.4470  23.2041  10.7391   H         1 RES1   0.0000
    45 H14      3.6143  23.8624   9.0789   H         1 RES1   0.0000
    46 H15     -3.3099  25.9563  15.2584   H         1 RES1   0.0000
    47 H16     -1.7126  26.6735  14.9200   H         1 RES1   0.0000
    48 ****    -3.8497  23.8787  14.2437   Du        1 RES1  22.1639
    49 ****    -1.2598  21.9261  11.7692   Du        1 RES1  20.7642
    50 ****     0.2944  26.4663  13.8229   Du        1 RES1  25.1226
    51 ****     1.6772  22.0495  12.9645   Du        1 RES1  16.8438
    52 ****     0.8876  21.1481  11.8551   Du        1 RES1  19.2957
    53 ****     0.9661  17.1163  13.3877   Du        1 RES1   1.9449
    54 ****     1.8098  15.8891  12.5033   Du        1 RES1   0.3190
    55 ****     4.4446  18.0291  11.2748   Du        1 RES1   3.7445
    56 ****     3.2066  17.0988  10.7565   Du        1 RES1   1.6349
    57 ****     5.2441  16.0996  12.3735   Du        1 RES1   0.2802
    58 ****     4.8742  14.4886  12.8910   Du        1 RES1   0.0000
    59 ****     3.2202  14.7048  15.6415   Du        1 RES1   0.0000
    60 ****     2.8723  14.4488  14.0667   Du        1 RES1   0.0000
    61 ****     6.0016  12.8236  14.3177   Du        1 RES1   0.0000
    62 ****     6.9509  14.2225  13.9409   Du        1 RES1   0.0000
    63 ****     4.6829  12.6376  16.2069   Du        1 RES1   0.0000
    64 ****     3.7403  13.9225  15.8503   Du        1 RES1   0.0000
    65 ****     6.7233  13.7829  17.6511   Du        1 RES1   0.0000
    66 ****     7.1792  15.2909  17.2212   Du        1 RES1   0.0000
    67 ****     4.5943  22.4069   9.6604   Du        1 RES1  20.9948
    68 ****     5.3451  21.6243  10.8813   Du        1 RES1  11.6096
    69 ****     2.0381  24.0435   8.9631   Du        1 RES1  25.4643
    70 ****     2.7050  22.5572   9.0759   Du        1 RES1  24.7769
@<TRIPOS>BOND
     1     1     2   ar
     2     2     3   ar
     3     3     4   ar
     4     4     5   ar
     5     5     6   ar
     6     1     6   ar
     7     5     7   ar
     8     7     8   ar
     9     8     9   ar
    10     4     9   ar
    11     7    10    1
    12    10    11    1
    13    11    12    1
    14    12    13    1
    15    13    14    1
    16    10    14    1
    17    13    15    1
    18    15    16    1
    19    16    17    1
    20    17    18    2
    21    17    19    1
    22    17    20    1
    23    20    21    1
    24    21    22    2
    25    21    23    1
    26    21    24    1
    27    24    25    1
    28    25    26    2
    29    25    27    1
    30    25    28    1
    31    12    29    1
    32    11    30    1
    33     3    31    1
    34     1    32    1
    35     8    33    1
    36    10    34    1
    37    11    35    1
    38    12    36    1
    39    13    37    1
    40    15    38    1
    41    15    39    1
    42    19    40    1
    43    23    41    1
    44    27    42    1
    45    28    43    1
    46    29    44    1
    47    30    45    1
    48    31    46    1
    49    31    47    1
    50     2    48    1
    51     6    49    1
    52     9    50    1
    53    14    51    1
    54    14    52    1
    55    18    53    1
    56    18    54    1
    57    19    55    1
    58    19    56    1
    59    22    57    1
    60    22    58    1
    61    23    59    1
    62    23    60    1
    63    26    61    1
    64    26    62    1
    65    27    63    1
    66    27    64    1
    67    28    65    1
    68    28    66    1
    69    29    67    1
    70    29    68    1
    71    30    69    1
    72    30    70    1
@<TRIPOS>SUBSTRUCTURE
     1 RES1        1 GROUP             0 ****  ****    0  
@<TRIPOS>MOLECULE
7.77110880645
    70    72     1     0     0
SMALL
USER_CHARGES
****
Generated from the CSD

@<TRIPOS>ATOM
     1 C       -0.8701  23.2566  12.0996   C.ar      1 RES1  22.7847
     2 N       -0.5191  24.3454  12.8222   N.ar      1 RES1  22.6909
     3 C        0.6521  24.9850  12.6185   C.ar      1 RES1  21.6459
     4 C        1.4890  24.4771  11.6285   C.ar      1 RES1  22.4505
     5 C        1.1004  23.3640  10.9005   C.ar      1 RES1  24.5771
     6 N       -0.0745  22.7540  11.1315   N.ar      1 RES1  23.1040
     7 N        2.0921  23.1100  10.0301   N.ar      1 RES1  24.7769
     8 C        3.0780  24.0144  10.2005   C.ar      1 RES1  25.4643
     9 N        2.6997  24.8598  11.1822   N.ar      1 RES1  24.5771
    10 C        2.0986  22.0585   9.1647   C.3       1 RES1  23.3462
    11 C        3.4075  22.0242   8.3434   C.3       1 RES1  23.3462
    12 C        4.0774  20.7118   8.7876   C.3       1 RES1  13.3653
    13 C        2.8529  19.8734   9.1957   C.3       1 RES1  12.5067
    14 O        2.0865  20.8389   9.9200   O.3       1 RES1  20.6190
    15 C        3.2078  18.6793  10.1048   C.3       1 RES1   4.7056
    16 O        3.6975  19.1750  11.3547   O.3       1 RES1   0.0000
    17 P        2.7269  19.4094  12.6047   P.3       1 RES1  10.9803
    18 O        2.7795  20.8425  13.0093   O.2       1 RES1  12.1920
    19 O        1.2286  19.0435  12.1799   O.3       1 RES1   2.0480
    20 O        3.1693  18.4754  13.8276   O.3       1 RES1   0.0000
    21 P        3.0431  16.9252  13.4473   P.3       1 RES1   2.5162
    22 O        4.0919  16.5899  12.4435   O.2       1 RES1   1.1894
    23 O        1.6020  16.6443  12.8110   O.3       1 RES1   0.0000
    24 O        3.2537  16.0276  14.7561   O.3       1 RES1   0.0000
    25 P        4.6270  16.3963  15.4918   P.3       1 RES1   1.1352
    26 O        5.3594  17.4181  14.6921   O.2       1 RES1   2.9990
    27 O        5.5399  15.0902  15.6354   O.3       1 RES1   0.0000
    28 O        4.3151  16.9955  16.9422   O.3       1 RES1   0.0000
    29 O        4.8338  20.1236   7.7228   O.3       1 RES1   0.0000
    30 O        3.0877  21.9580   6.9485   O.3       1 RES1   0.0000
    31 N        1.0009  26.0707  13.3416   N.pl3     1 RES1  22.2215
    32 H1      -1.8184  22.7726  12.3034   H         1 RES1   0.0000
    33 H2       4.0109  24.0573   9.6498   H         1 RES1   0.0000
    34 H3       1.2333  22.0840   8.4849   H         1 RES1   0.0000
    35 H4       4.0518  22.8944   8.5443   H         1 RES1   0.0000
    36 H5       4.7035  20.9120   9.6701   H         1 RES1   0.0000
    37 H6       2.3062  19.5470   8.2976   H         1 RES1   0.0000
    38 H7       3.9661  18.0419   9.6267   H         1 RES1   0.0000
    39 H8       2.2989  18.0865  10.2865   H         1 RES1   0.0000
    40 H9       0.6587  19.1145  12.9367   H         1 RES1   0.0000
    41 H10      1.0359  16.2563  13.4677   H         1 RES1   0.0000
    42 H11      5.3603  14.6685  16.4673   H         1 RES1   0.0000
    43 H12      3.7490  16.3979  17.4162   H         1 RES1   0.0000
    44 H13      4.4696  20.3646   6.8792   H         1 RES1   0.0000
    45 H14      2.5398  22.6939   6.7002   H         1 RES1   0.0000
    46 H15      0.3689  26.4323  14.0703   H         1 RES1   0.0000
    47 H16      1.9011  26.5384  13.1639   H         1 RES1   0.0000
    48 ****    -1.1436  24.6852  13.5255   Du        1 RES1  20.7464
    49 ****    -0.3512  21.9519  10.6023   Du        1 RES1  22.9349
    50 ****     3.2288  25.6381  11.5204   Du        1 RES1  23.5619
    51 ****     2.4938  20.9915  10.8205   Du        1 RES1  20.6190
    52 ****     1.1467  20.5153  10.0298   Du        1 RES1  19.2957
    53 ****     3.4432  21.1448  13.6935   Du        1 RES1  10.4728
    54 ****     2.1511  21.5019  12.5967   Du        1 RES1  17.0354
    55 ****     1.2008  18.1078  11.8282   Du        1 RES1   4.5272
    56 ****     0.9196  19.6758  11.4694   Du        1 RES1  19.2957
    57 ****     4.2440  17.1915  11.6593   Du        1 RES1   2.1555
    58 ****     4.6437  15.7633  12.5540   Du        1 RES1   0.3190
    59 ****     1.6955  16.0163  12.0385   Du        1 RES1   0.3190
    60 ****     1.2039  17.5053  12.4944   Du        1 RES1   2.7233
    61 ****     5.2805  18.3871  14.9264   Du        1 RES1   5.3040
    62 ****     5.9298  17.1349  13.9211   Du        1 RES1   0.9308
    63 ****     6.5043  15.3516  15.5954   Du        1 RES1   0.0000
    64 ****     5.3351  14.4567  14.8893   Du        1 RES1   0.0000
    65 ****     3.8600  17.8808  16.8464   Du        1 RES1   0.7848
    66 ****     5.1713  17.1136  17.4453   Du        1 RES1   0.0000
    67 ****     4.8138  19.1283   7.8168   Du        1 RES1   1.0164
    68 ****     5.7795  20.4444   7.7759   Du        1 RES1   5.4580
    69 ****     2.5993  21.1055   6.7621   Du        1 RES1  18.3446
    70 ****     3.9331  21.9813   6.4148   Du        1 RES1  17.5108
@<TRIPOS>BOND
     1     1     2   ar
     2     2     3   ar
     3     3     4   ar
     4     4     5   ar
     5     5     6   ar
     6     1     6   ar
     7     5     7   ar
     8     7     8   ar
     9     8     9   ar
    10     4     9   ar
    11     7    10    1
    12    10    11    1
    13    11    12    1
    14    12    13    1
    15    13    14    1
    16    10    14    1
    17    13    15    1
    18    15    16    1
    19    16    17    1
    20    17    18    2
    21    17    19    1
    22    17    20    1
    23    20    21    1
    24    21    22    2
    25    21    23    1
    26    21    24    1
    27    24    25    1
    28    25    26    2
    29    25    27    1
    30    25    28    1
    31    12    29    1
    32    11    30    1
    33     3    31    1
    34     1    32    1
    35     8    33    1
    36    10    34    1
    37    11    35    1
    38    12    36    1
    39    13    37    1
    40    15    38    1
    41    15    39    1
    42    19    40    1
    43    23    41    1
    44    27    42    1
    45    28    43    1
    46    29    44    1
    47    30    45    1
    48    31    46    1
    49    31    47    1
    50     2    48    1
    51     6    49    1
    52     9    50    1
    53    14    51    1
    54    14    52    1
    55    18    53    1
    56    18    54    1
    57    19    55    1
    58    19    56    1
    59    22    57    1
    60    22    58    1
    61    23    59    1
    62    23    60    1
    63    26    61    1
    64    26    62    1
    65    27    63    1
    66    27    64    1
    67    28    65    1
    68    28    66    1
    69    29    67    1
    70    29    68    1
    71    30    69    1
    72    30    70    1
@<TRIPOS>SUBSTRUCTURE
     1 RES1        1 GROUP             0 ****  ****    0  
@<TRIPOS>MOLECULE
6.77883377473
    70    72     1     0     0
SMALL
USER_CHARGES
****
Generated from the CSD

@<TRIPOS>ATOM
     1 C        2.8156  13.9249  13.1364   C.ar      1 RES1   0.0000
     2 N        2.5598  13.3684  14.3430   N.ar      1 RES1   0.0000
     3 C        2.7145  14.0612  15.4912   C.ar      1 RES1   0.0000
     4 C        3.1494  15.3794  15.3836   C.ar      1 RES1   0.0000
     5 C        3.3978  15.9243  14.1341   C.ar      1 RES1   0.3190
     6 N        3.2316  15.2032  13.0124   N.ar      1 RES1   0.0000
     7 N        3.7955  17.1912  14.3406   N.ar      1 RES1   2.5162
     8 C        3.8116  17.4435  15.6654   C.ar      1 RES1   3.8026
     9 N        3.4061  16.3263  16.3050   N.ar      1 RES1   0.2150
    10 C        4.1753  18.0441  13.3493   C.3       1 RES1   5.3976
    11 C        3.3247  17.8294  12.0767   C.3       1 RES1   4.6412
    12 C        2.5660  19.1594  11.9218   C.3       1 RES1   9.3249
    13 C        3.5339  20.1385  12.6099   C.3       1 RES1  10.0549
    14 O        3.9063  19.3892  13.7692   O.3       1 RES1  10.0549
    15 C        2.8665  21.4664  13.0215   C.3       1 RES1  15.1947
    16 O        1.7622  21.7230  12.1483   O.3       1 RES1   0.2131
    17 P        1.0492  23.1541  12.0925   P.3       1 RES1  20.1738
    18 O        2.0751  24.2237  12.2466   O.2       1 RES1  20.1738
    19 O        0.3285  23.3249  10.6745   O.3       1 RES1   8.4972
    20 O       -0.0452  23.2693  13.2555   O.3       1 RES1  22.8941
    21 P       -0.7587  24.7025  13.2391   P.3       1 RES1  22.6909
    22 O       -1.6250  24.7942  12.0304   O.2       1 RES1  24.7556
    23 O        0.3509  25.8537  13.1753   O.3       1 RES1  23.6446
    24 O       -1.6585  24.8746  14.5521   O.3       1 RES1  22.8941
    25 P       -2.6748  23.6488  14.7178   P.3       1 RES1  20.4521
    26 O       -2.3485  22.8988  15.9632   O.2       1 RES1  20.4521
    27 O       -2.5525  22.6619  13.4645   O.3       1 RES1  21.5193
    28 O       -4.1723  24.2029  14.8208   O.3       1 RES1  28.7233
    29 O        2.3335  19.4719  10.5433   O.3       1 RES1   0.0000
    30 O        4.1943  17.6331  10.9553   O.3       1 RES1   0.0000
    31 N        2.4600  13.5035  16.6943   N.pl3     1 RES1   0.0000
    32 H1       2.6828  13.3271  12.2420   H         1 RES1   0.0000
    33 H2       4.0998  18.3762  16.1370   H         1 RES1   0.0000
    34 H3       5.2433  17.9368  13.1054   H         1 RES1   0.0000
    35 H4       2.6321  16.9786  12.1736   H         1 RES1   0.0000
    36 H5       1.6260  19.1020  12.4909   H         1 RES1   0.0000
    37 H6       4.4115  20.3111  11.9680   H         1 RES1   0.0000
    38 H7       3.5895  22.2939  12.9713   H         1 RES1   0.0000
    39 H8       2.4933  21.3739  14.0524   H         1 RES1   0.0000
    40 H9       0.8612  22.9230   9.9983   H         1 RES1   0.0000
    41 H10      0.2862  26.3994  13.9501   H         1 RES1   0.0000
    42 H11     -2.1350  21.8536  13.7377   H         1 RES1   0.0000
    43 H12     -4.7830  23.5016  14.6267   H         1 RES1   0.0000
    44 H13      1.9436  20.3338  10.4555   H         1 RES1   0.0000
    45 H14      4.0148  18.2790  10.2815   H         1 RES1   0.0000
    46 H15      2.1391  12.5264  16.7546   H         1 RES1   0.0000
    47 H16      2.5868  14.0566  17.5538   H         1 RES1   0.0000
    48 ****     2.2481  12.4191  14.3852   Du        1 RES1   0.0000
    49 ****     3.4107  15.6016  12.1128   Du        1 RES1   0.0000
    50 ****     3.3124  16.2201  17.2949   Du        1 RES1   0.0000
    51 ****     3.1592  19.3958  14.4339   Du        1 RES1  10.0549
    52 ****     4.7247  19.7870  14.1838   Du        1 RES1  10.0549
    53 ****     2.0346  25.0416  11.6727   Du        1 RES1  22.4081
    54 ****     2.8040  24.1236  12.9238   Du        1 RES1  18.8326
    55 ****     0.2135  24.2978  10.4741   Du        1 RES1  23.9662
    56 ****    -0.5675  22.8818  10.7005   Du        1 RES1  23.9662
    57 ****    -2.3090  24.0872  11.8507   Du        1 RES1  22.7847
    58 ****    -1.5225  25.5627  11.3988   Du        1 RES1  25.0938
    59 ****     0.2036  26.4137  12.3600   Du        1 RES1  25.1226
    60 ****     1.2598  25.4386  13.1348   Du        1 RES1  20.7566
    61 ****    -3.0834  22.5216  16.5268   Du        1 RES1  22.1639
    62 ****    -1.3946  22.7725  16.2354   Du        1 RES1  18.6626
    63 ****    -2.0031  23.0961  12.7506   Du        1 RES1  21.3862
    64 ****    -3.4649  22.4617  13.1074   Du        1 RES1  20.7642
    65 ****    -4.2986  24.9463  14.1641   Du        1 RES1  22.1639
    66 ****    -4.3389  24.5436  15.7461   Du        1 RES1  22.1639
    67 ****     1.7150  18.7904  10.1520   Du        1 RES1  14.9492
    68 ****     3.2038  19.4537  10.0512   Du        1 RES1   9.3871
    69 ****     4.0488  16.7171  10.5814   Du        1 RES1   0.2295
    70 ****     5.1441  17.7240  11.2546   Du        1 RES1   2.9866
@<TRIPOS>BOND
     1     1     2   ar
     2     2     3   ar
     3     3     4   ar
     4     4     5   ar
     5     5     6   ar
     6     1     6   ar
     7     5     7   ar
     8     7     8   ar
     9     8     9   ar
    10     4     9   ar
    11     7    10    1
    12    10    11    1
    13    11    12    1
    14    12    13    1
    15    13    14    1
    16    10    14    1
    17    13    15    1
    18    15    16    1
    19    16    17    1
    20    17    18    2
    21    17    19    1
    22    17    20    1
    23    20    21    1
    24    21    22    2
    25    21    23    1
    26    21    24    1
    27    24    25    1
    28    25    26    2
    29    25    27    1
    30    25    28    1
    31    12    29    1
    32    11    30    1
    33     3    31    1
    34     1    32    1
    35     8    33    1
    36    10    34    1
    37    11    35    1
    38    12    36    1
    39    13    37    1
    40    15    38    1
    41    15    39    1
    42    19    40    1
    43    23    41    1
    44    27    42    1
    45    28    43    1
    46    29    44    1
    47    30    45    1
    48    31    46    1
    49    31    47    1
    50     2    48    1
    51     6    49    1
    52     9    50    1
    53    14    51    1
    54    14    52    1
    55    18    53    1
    56    18    54    1
    57    19    55    1
    58    19    56    1
    59    22    57    1
    60    22    58    1
    61    23    59    1
    62    23    60    1
    63    26    61    1
    64    26    62    1
    65    27    63    1
    66    27    64    1
    67    28    65    1
    68    28    66    1
    69    29    67    1
    70    29    68    1
    71    30    69    1
    72    30    70    1
@<TRIPOS>SUBSTRUCTURE
     1 RES1        1 GROUP             0 ****  ****    0  
@<TRIPOS>MOLECULE
5.91116992529
    70    72     1     0     0
SMALL
USER_CHARGES
****
Generated from the CSD

@<TRIPOS>ATOM
     1 C       -4.6467  28.0491  18.5516   C.ar      1 RES1   8.6167
     2 N       -3.7967  27.3784  17.7401   N.ar      1 RES1   8.2389
     3 C       -4.0976  26.1564  17.2517   C.ar      1 RES1  16.9663
     4 C       -5.3251  25.6110  17.6178   C.ar      1 RES1  19.2486
     5 C       -6.1776  26.3237  18.4456   C.ar      1 RES1  14.5634
     6 N       -5.8436  27.5390  18.9118   N.ar      1 RES1  14.5634
     7 N       -7.2689  25.5595  18.6212   N.ar      1 RES1  17.0093
     8 C       -7.1174  24.4029  17.9442   C.ar      1 RES1  17.0093
     9 N       -5.9207  24.4410  17.3212   N.ar      1 RES1  19.9202
    10 C       -8.3214  25.9012  19.4148   C.3       1 RES1  17.2915
    11 C       -9.6493  25.8557  18.6252   C.3       1 RES1  17.2915
    12 C      -10.4419  24.7327  19.3174   C.3       1 RES1  17.2915
    13 C       -9.8503  24.7798  20.7375   C.3       1 RES1  17.2915
    14 O       -8.4564  24.9185  20.4512   O.3       1 RES1  17.2915
    15 C      -10.1058  23.4921  21.5468   C.3       1 RES1   9.7816
    16 O       -8.9120  23.1418  22.2538   O.3       1 RES1   0.1965
    17 P       -8.9574  22.3133  23.6216   P.3       1 RES1  11.1204
    18 O       -9.6704  23.1106  24.6590   O.2       1 RES1   4.3564
    19 O       -9.7517  20.9460  23.3794   O.3       1 RES1   0.0000
    20 O       -7.4703  21.9775  24.1111   O.3       1 RES1   0.4238
    21 P       -7.4860  21.0734  25.4324   P.3       1 RES1   0.5224
    22 O       -8.4887  21.6302  26.3836   O.2       1 RES1   0.1069
    23 O       -6.0414  21.1023  26.1197   O.3       1 RES1   0.0000
    24 O       -7.8886  19.5704  25.0554   O.3       1 RES1   0.0000
    25 P       -7.9505  18.6465  26.3614   P.3       1 RES1   0.0000
    26 O       -8.2832  17.2493  25.9654   O.2       1 RES1   0.0000
    27 O       -9.0736  19.1886  27.3637   O.3       1 RES1   0.0000
    28 O       -6.5279  18.6556  27.0936   O.3       1 RES1   0.0000
    29 O      -11.8508  24.9896  19.2848   O.3       1 RES1   0.0000
    30 O      -10.3357  27.1031  18.7837   O.3       1 RES1   0.0000
    31 N       -3.2474  25.4883  16.4430   N.pl3     1 RES1  28.7233
    32 H1      -4.3589  29.0255  18.9242   H         1 RES1   0.0000
    33 H2      -7.8277  23.5847  17.9058   H         1 RES1   0.0000
    34 H3      -8.1885  26.8982  19.8622   H         1 RES1   0.0000
    35 H4      -9.4946  25.6407  17.5562   H         1 RES1   0.0000
    36 H5     -10.1914  23.7733  18.8404   H         1 RES1   0.0000
    37 H6     -10.2219  25.6695  21.2689   H         1 RES1   0.0000
    38 H7     -10.4064  22.6704  20.8802   H         1 RES1   0.0000
    39 H8     -10.9097  23.6810  22.2738   H         1 RES1   0.0000
    40 H9      -9.1556  20.2899  23.0379   H         1 RES1   0.0000
    41 H10     -5.7132  20.2149  26.2049   H         1 RES1   0.0000
    42 H11     -9.4667  18.4567  27.8243   H         1 RES1   0.0000
    43 H12     -6.6506  18.8198  28.0212   H         1 RES1   0.0000
    44 H13    -12.0247  25.9194  19.3727   H         1 RES1   0.0000
    45 H14     -9.8802  27.7925  18.3139   H         1 RES1   0.0000
    46 H15     -2.3430  25.9075  16.1829   H         1 RES1   0.0000
    47 H16     -3.5038  24.5572  16.0853   H         1 RES1   0.0000
    48 ****    -2.9229  27.7989  17.4958   Du        1 RES1   3.3915
    49 ****    -6.4631  28.0501  19.5077   Du        1 RES1  14.5634
    50 ****    -5.5412  23.7224  16.7385   Du        1 RES1  22.1639
    51 ****    -8.0832  24.0437  20.1421   Du        1 RES1  17.7403
    52 ****    -7.9682  25.2182  21.2709   Du        1 RES1  14.8368
    53 ****    -9.9766  22.6719  25.5038   Du        1 RES1   1.3328
    54 ****    -9.8427  24.0844  24.5103   Du        1 RES1   4.0117
    55 ****   -10.4892  21.1008  22.7220   Du        1 RES1   2.1832
    56 ****   -10.1381  20.6271  24.2448   Du        1 RES1   0.9258
    57 ****    -8.8451  22.5549  26.2499   Du        1 RES1   1.7072
    58 ****    -8.8052  21.0791  27.1557   Du        1 RES1   0.0000
    59 ****    -6.1116  21.5201  27.0256   Du        1 RES1   0.0000
    60 ****    -5.4137  21.6369  25.5539   Du        1 RES1   1.1606
    61 ****    -8.2394  16.5140  26.6417   Du        1 RES1   0.0000
    62 ****    -8.5503  17.0468  25.0232   Du        1 RES1   0.0000
    63 ****    -9.7779  19.6729  26.8447   Du        1 RES1   0.0000
    64 ****    -8.6575  19.8135  28.0243   Du        1 RES1   0.0000
    65 ****    -5.9552  19.3750  26.7006   Du        1 RES1   0.0000
    66 ****    -6.0825  17.7691  26.9679   Du        1 RES1   0.0000
    67 ****   -12.2911  24.5007  20.0378   Du        1 RES1  16.5139
    68 ****   -12.2233  24.6668  18.4147   Du        1 RES1  17.0445
    69 ****   -10.3754  27.3367  19.7553   Du        1 RES1  16.8358
    70 ****   -11.2646  27.0166  18.4236   Du        1 RES1  18.1238
@<TRIPOS>BOND
     1     1     2   ar
     2     2     3   ar
     3     3     4   ar
     4     4     5   ar
     5     5     6   ar
     6     1     6   ar
     7     5     7   ar
     8     7     8   ar
     9     8     9   ar
    10     4     9   ar
    11     7    10    1
    12    10    11    1
    13    11    12    1
    14    12    13    1
    15    13    14    1
    16    10    14    1
    17    13    15    1
    18    15    16    1
    19    16    17    1
    20    17    18    2
    21    17    19    1
    22    17    20    1
    23    20    21    1
    24    21    22    2
    25    21    23    1
    26    21    24    1
    27    24    25    1
    28    25    26    2
    29    25    27    1
    30    25    28    1
    31    12    29    1
    32    11    30    1
    33     3    31    1
    34     1    32    1
    35     8    33    1
    36    10    34    1
    37    11    35    1
    38    12    36    1
    39    13    37    1
    40    15    38    1
    41    15    39    1
    42    19    40    1
    43    23    41    1
    44    27    42    1
    45    28    43    1
    46    29    44    1
    47    30    45    1
    48    31    46    1
    49    31    47    1
    50     2    48    1
    51     6    49    1
    52     9    50    1
    53    14    51    1
    54    14    52    1
    55    18    53    1
    56    18    54    1
    57    19    55    1
    58    19    56    1
    59    22    57    1
    60    22    58    1
    61    23    59    1
    62    23    60    1
    63    26    61    1
    64    26    62    1
    65    27    63    1
    66    27    64    1
    67    28    65    1
    68    28    66    1
    69    29    67    1
    70    29    68    1
    71    30    69    1
    72    30    70    1
@<TRIPOS>SUBSTRUCTURE
     1 RES1        1 GROUP             0 ****  ****    0  
