@<TRIPOS>MOLECULE
64.1914
    70    72     1     0     0
SMALL
NO_CHARGES
****
Generated from the CSD

@<TRIPOS>ATOM
     1 C       -1.2336  24.1007   9.1909   C.ar      1 RES1   0.0000
     2 N       -0.0299  24.6774   8.9694   N.ar      1 RES1   0.0000
     3 C        0.7071  25.1888   9.9778   C.ar      1 RES1   0.0000
     4 C        0.1755  25.0980  11.2610   C.ar      1 RES1   0.0000
     5 C       -1.0630  24.5078  11.4574   C.ar      1 RES1   0.0000
     6 N       -1.7653  24.0044  10.4283   N.ar      1 RES1   0.0000
     7 N       -1.3156  24.5809  12.7752   N.ar      1 RES1   0.0000
     8 C       -0.2784  25.1794  13.3957   C.ar      1 RES1   0.0000
     9 N        0.6401  25.4961  12.4596   N.ar      1 RES1   0.0000
    10 C       -2.4345  24.1118  13.3938   C.3       1 RES1   0.0000
    11 C       -2.5027  24.4938  14.8883   C.3       1 RES1   0.0000
    12 C       -3.9855  24.8678  15.1118   C.3       1 RES1   0.0000
    13 C       -4.6593  24.4810  13.7789   C.3       1 RES1   0.0000
    14 O       -3.6049  24.7177  12.8442   O.3       1 RES1   0.0000
    15 C       -5.8970  25.3415  13.4463   C.3       1 RES1   0.0000
    16 O       -6.5953  25.6980  14.6456   O.3       1 RES1   0.0000
    17 P       -7.6096  24.6984  15.3771   P.3       1 RES1   0.0000
    18 O       -8.7376  24.3995  14.4502   O.2       1 RES1   0.0000
    19 O       -6.8565  23.3348  15.7415   O.3       1 RES1   0.0000
    20 O       -8.1549  25.3938  16.7126   O.3       1 RES1   0.0000
    21 P       -9.2167  26.5442  16.3786   P.3       1 RES1   0.0000
    22 O       -8.5807  27.5382  15.4688   O.2       1 RES1   0.0000
    23 O       -9.6633  27.2693  17.7331   O.3       1 RES1   0.0000
    24 O      -10.4905  25.8975  15.6541   O.3       1 RES1   0.0000
    25 P      -11.8101  26.7847  15.8453   P.3       1 RES1   0.0000
    26 O      -12.6704  26.1971  16.9107   O.2       1 RES1   0.0000
    27 O      -11.4252  28.2880  16.2370   O.3       1 RES1   0.0000
    28 O      -12.6254  26.8021  14.4690   O.3       1 RES1   0.0000
    29 O       -4.5431  24.1534  16.2212   O.3       1 RES1   0.0000
    30 O       -2.1178  23.3875  15.7126   O.3       1 RES1   0.0000
    31 N        1.9079  25.7656   9.7567   N.pl3     1 RES1   0.0000
    32 H1      -1.7886  23.7037   8.3488   H         1 RES1   0.0000
    33 H2      -0.1947  25.3739  14.4589   H         1 RES1   0.0000
    34 H3      -2.5219  23.0197  13.2838   H         1 RES1   0.0000
    35 H4      -1.8678  25.3689  15.0985   H         1 RES1   0.0000
    36 H5      -4.0607  25.9555  15.2668   H         1 RES1   0.0000
    37 H6      -4.9182  23.4110  13.7898   H         1 RES1   0.0000
    38 H7      -5.5893  26.2630  12.9306   H         1 RES1   0.0000
    39 H8      -6.5733  24.7696  12.7937   H         1 RES1   0.0000
    40 H9      -6.5021  23.3942  16.6209   H         1 RES1   0.0000
    41 H10    -10.3429  27.9053  17.5430   H         1 RES1   0.0000
    42 H11    -12.1495  28.8702  16.0404   H         1 RES1   0.0000
    43 H12    -13.5484  26.6616  14.6450   H         1 RES1   0.0000
    44 H13     -4.4795  24.6697  17.0165   H         1 RES1   0.0000
    45 H14     -2.6491  22.6252  15.5119   H         1 RES1   0.0000
    46 H15      2.2815  25.8227   8.7986   H         1 RES1   0.0000
    47 H16      2.4506  26.1495  10.5439   H         1 RES1   0.0000
    48 ****     0.3227  24.7258   8.0349   Du        1 RES1   0.0000
    49 ****    -2.6549  23.5716  10.5745   Du        1 RES1   0.0000
    50 ****     1.5158  25.9489  12.6275   Du        1 RES1   0.0000
    51 ****    -3.4624  25.7003  12.7253   Du        1 RES1   0.0000
    52 ****    -3.8263  24.3038  11.9611   Du        1 RES1   0.0000
    53 ****    -8.8053  24.8777  13.5746   Du        1 RES1   0.0000
    54 ****    -9.4268  23.7208  14.7039   Du        1 RES1   0.0000
    55 ****    -6.1120  23.1812  15.0917   Du        1 RES1   0.0000
    56 ****    -7.5033  22.5736  15.6934   Du        1 RES1   0.0000
    57 ****    -8.1632  27.2361  14.6118   Du        1 RES1   0.0000
    58 ****    -8.5714  28.5073  15.7153   Du        1 RES1   0.0000
    59 ****    -8.8757  27.7341  18.1377   Du        1 RES1   0.0000
    60 ****   -10.0145  26.5882  18.3756   Du        1 RES1   0.0000
    61 ****   -13.2983  25.4504  16.6911   Du        1 RES1   0.0000
    62 ****   -12.6197  26.5494  17.8452   Du        1 RES1   0.0000
    63 ****   -10.6213  28.5711  15.7139   Du        1 RES1   0.0000
    64 ****   -11.2197  28.3333  17.2146   Du        1 RES1   0.0000
    65 ****   -12.2859  26.0757  13.8714   Du        1 RES1   0.0000
    66 ****   -12.5028  27.6873  14.0203   Du        1 RES1   0.0000
    67 ****    -4.0434  23.2961  16.3449   Du        1 RES1   0.0000
    68 ****    -5.5051  23.9546  16.0343   Du        1 RES1   0.0000
    69 ****    -2.2434  23.6331  16.6738   Du        1 RES1   0.0000
    70 ****    -1.1556  23.1717  15.5466   Du        1 RES1   0.0000
@<TRIPOS>BOND
     1     1     2   ar
     2     2     3   ar
     3     3     4   ar
     4     4     5   ar
     5     5     6   ar
     6     1     6   ar
     7     5     7   ar
     8     7     8   ar
     9     8     9   ar
    10     4     9   ar
    11     7    10    1
    12    10    11    1
    13    11    12    1
    14    12    13    1
    15    13    14    1
    16    10    14    1
    17    13    15    1
    18    15    16    1
    19    16    17    1
    20    17    18    2
    21    17    19    1
    22    17    20    1
    23    20    21    1
    24    21    22    2
    25    21    23    1
    26    21    24    1
    27    24    25    1
    28    25    26    2
    29    25    27    1
    30    25    28    1
    31    12    29    1
    32    11    30    1
    33     3    31    1
    34     1    32    1
    35     8    33    1
    36    10    34    1
    37    11    35    1
    38    12    36    1
    39    13    37    1
    40    15    38    1
    41    15    39    1
    42    19    40    1
    43    23    41    1
    44    27    42    1
    45    28    43    1
    46    29    44    1
    47    30    45    1
    48    31    46    1
    49    31    47    1
    50     2    48    1
    51     6    49    1
    52     9    50    1
    53    14    51    1
    54    14    52    1
    55    18    53    1
    56    18    54    1
    57    19    55    1
    58    19    56    1
    59    22    57    1
    60    22    58    1
    61    23    59    1
    62    23    60    1
    63    26    61    1
    64    26    62    1
    65    27    63    1
    66    27    64    1
    67    28    65    1
    68    28    66    1
    69    29    67    1
    70    29    68    1
    71    30    69    1
    72    30    70    1
@<TRIPOS>SUBSTRUCTURE
     1 RES1        1 GROUP             0 ****  ****    0  
@<TRIPOS>MOLECULE
63.9604
    70    72     1     0     0
SMALL
NO_CHARGES
****
Generated from the CSD

@<TRIPOS>ATOM
     1 C        2.4587  25.1616  11.4036   C.ar      1 RES1   0.0000
     2 N        2.5899  25.0659  10.0604   N.ar      1 RES1   0.0000
     3 C        1.5750  24.6429   9.2776   C.ar      1 RES1   0.0000
     4 C        0.3823  24.3078   9.9121   C.ar      1 RES1   0.0000
     5 C        0.2786  24.4093  11.2903   C.ar      1 RES1   0.0000
     6 N        1.3100  24.8402  12.0362   N.ar      1 RES1   0.0000
     7 N       -0.9633  24.0077  11.6100   N.ar      1 RES1   0.0000
     8 C       -1.6286  23.6767  10.4844   C.ar      1 RES1   0.0000
     9 N       -0.7967  23.8639   9.4389   N.ar      1 RES1   0.0000
    10 C       -1.4789  23.9560  12.8694   C.3       1 RES1   0.0000
    11 C       -1.3863  25.3049  13.6150   C.3       1 RES1   0.0000
    12 C       -2.7391  25.4179  14.3537   C.3       1 RES1   0.0000
    13 C       -3.3949  24.0415  14.1168   C.3       1 RES1   0.0000
    14 O       -2.8825  23.6967  12.8284   O.3       1 RES1   0.0000
    15 C       -4.9376  24.0928  14.1031   C.3       1 RES1   0.0000
    16 O       -5.4348  24.5342  15.3724   O.3       1 RES1   0.0000
    17 P       -6.8360  24.0358  15.9653   P.3       1 RES1   0.0000
    18 O       -7.8039  23.8863  14.8421   O.2       1 RES1   0.0000
    19 O       -6.6458  22.6193  16.6841   O.3       1 RES1   0.0000
    20 O       -7.3693  25.1156  17.0208   O.3       1 RES1   0.0000
    21 P       -8.2647  26.2345  16.3074   P.3       1 RES1   0.0000
    22 O       -9.4474  25.5791  15.6816   O.2       1 RES1   0.0000
    23 O       -7.4020  26.9698  15.1782   O.3       1 RES1   0.0000
    24 O       -8.7598  27.2954  17.4006   O.3       1 RES1   0.0000
    25 P       -9.6615  28.4515  16.7562   P.3       1 RES1   0.0000
    26 O      -10.1259  29.3883  17.8179   O.2       1 RES1   0.0000
    27 O       -8.8326  29.2620  15.6527   O.3       1 RES1   0.0000
    28 O      -10.9365  27.7841  16.0574   O.3       1 RES1   0.0000
    29 O       -2.5522  25.6895  15.7477   O.3       1 RES1   0.0000
    30 O       -0.2912  25.3000  14.5381   O.3       1 RES1   0.0000
    31 N        1.7063  24.5460   7.9372   N.pl3     1 RES1   0.0000
    32 H1       3.3021  25.5068  11.9903   H         1 RES1   0.0000
    33 H2      -2.6513  23.3217  10.4267   H         1 RES1   0.0000
    34 H3      -0.9951  23.1665  13.4653   H         1 RES1   0.0000
    35 H4      -1.2857  26.1398  12.9037   H         1 RES1   0.0000
    36 H5      -3.3423  26.2063  13.8770   H         1 RES1   0.0000
    37 H6      -3.0339  23.3232  14.8689   H         1 RES1   0.0000
    38 H7      -5.2860  24.7896  13.3266   H         1 RES1   0.0000
    39 H8      -5.3334  23.0881  13.8922   H         1 RES1   0.0000
    40 H9      -5.9720  22.6903  17.3500   H         1 RES1   0.0000
    41 H10     -6.5305  27.1489  15.5114   H         1 RES1   0.0000
    42 H11     -9.1546  29.0502  14.7845   H         1 RES1   0.0000
    43 H12    -11.3351  27.1608  16.6533   H         1 RES1   0.0000
    44 H13     -1.8260  26.2889  15.8765   H         1 RES1   0.0000
    45 H14     -0.0902  26.1862  14.8173   H         1 RES1   0.0000
    46 H15      2.5986  24.7985   7.4890   H         1 RES1   0.0000
    47 H16      0.9164  24.2193   7.3620   H         1 RES1   0.0000
    48 ****     3.4609  25.3149   9.6368   Du        1 RES1   0.0000
    49 ****     1.2291  24.9203  13.0297   Du        1 RES1   0.0000
    50 ****    -1.0181  23.7008   8.4774   Du        1 RES1   0.0000
    51 ****    -3.3170  24.2561  12.1225   Du        1 RES1   0.0000
    52 ****    -3.0500  22.7295  12.6372   Du        1 RES1   0.0000
    53 ****    -8.5608  24.5326  14.7450   Du        1 RES1   0.0000
    54 ****    -7.6966  23.1397  14.1856   Du        1 RES1   0.0000
    55 ****    -6.3744  21.9355  16.0068   Du        1 RES1   0.0000
    56 ****    -7.5075  22.3431  17.1098   Du        1 RES1   0.0000
    57 ****    -9.9992  24.9337  16.2099   Du        1 RES1   0.0000
    58 ****    -9.6894  25.7845  14.7334   Du        1 RES1   0.0000
    59 ****    -7.8459  27.8299  14.9269   Du        1 RES1   0.0000
    60 ****    -7.3363  26.3809  14.3727   Du        1 RES1   0.0000
    61 ****    -9.5209  30.1152  18.1429   Du        1 RES1   0.0000
    62 ****   -11.0425  29.2900  18.2054   Du        1 RES1   0.0000
    63 ****    -7.8658  29.0148  15.7170   Du        1 RES1   0.0000
    64 ****    -8.9372  30.2433  15.8145   Du        1 RES1   0.0000
    65 ****   -10.6503  27.3117  15.2237   Du        1 RES1   0.0000
    66 ****   -11.6003  28.4954  15.8263   Du        1 RES1   0.0000
    67 ****    -2.3605  24.8330  16.2269   Du        1 RES1   0.0000
    68 ****    -3.3861  26.0990  16.1177   Du        1 RES1   0.0000
    69 ****     0.5125  24.9039  14.0940   Du        1 RES1   0.0000
    70 ****    -0.5356  24.7501  15.3368   Du        1 RES1   0.0000
@<TRIPOS>BOND
     1     1     2   ar
     2     2     3   ar
     3     3     4   ar
     4     4     5   ar
     5     5     6   ar
     6     1     6   ar
     7     5     7   ar
     8     7     8   ar
     9     8     9   ar
    10     4     9   ar
    11     7    10    1
    12    10    11    1
    13    11    12    1
    14    12    13    1
    15    13    14    1
    16    10    14    1
    17    13    15    1
    18    15    16    1
    19    16    17    1
    20    17    18    2
    21    17    19    1
    22    17    20    1
    23    20    21    1
    24    21    22    2
    25    21    23    1
    26    21    24    1
    27    24    25    1
    28    25    26    2
    29    25    27    1
    30    25    28    1
    31    12    29    1
    32    11    30    1
    33     3    31    1
    34     1    32    1
    35     8    33    1
    36    10    34    1
    37    11    35    1
    38    12    36    1
    39    13    37    1
    40    15    38    1
    41    15    39    1
    42    19    40    1
    43    23    41    1
    44    27    42    1
    45    28    43    1
    46    29    44    1
    47    30    45    1
    48    31    46    1
    49    31    47    1
    50     2    48    1
    51     6    49    1
    52     9    50    1
    53    14    51    1
    54    14    52    1
    55    18    53    1
    56    18    54    1
    57    19    55    1
    58    19    56    1
    59    22    57    1
    60    22    58    1
    61    23    59    1
    62    23    60    1
    63    26    61    1
    64    26    62    1
    65    27    63    1
    66    27    64    1
    67    28    65    1
    68    28    66    1
    69    29    67    1
    70    29    68    1
    71    30    69    1
    72    30    70    1
@<TRIPOS>SUBSTRUCTURE
     1 RES1        1 GROUP             0 ****  ****    0  
@<TRIPOS>MOLECULE
56.0874
    70    72     1     0     0
SMALL
NO_CHARGES
****
Generated from the CSD

@<TRIPOS>ATOM
     1 C        2.6861  20.5003  13.5042   C.ar      1 RES1   0.0000
     2 N        3.8784  19.9829  13.1282   N.ar      1 RES1   0.0000
     3 C        4.6665  20.6027  12.2246   C.ar      1 RES1   0.0000
     4 C        4.2001  21.8017  11.6933   C.ar      1 RES1   0.0000
     5 C        2.9720  22.3047  12.0922   C.ar      1 RES1   0.0000
     6 N        2.2174  21.6615  12.9991   N.ar      1 RES1   0.0000
     7 N        2.7864  23.4457  11.4069   N.ar      1 RES1   0.0000
     8 C        3.8550  23.6690  10.6148   C.ar      1 RES1   0.0000
     9 N        4.7257  22.6542  10.7944   N.ar      1 RES1   0.0000
    10 C        1.6992  24.2600  11.5048   C.3       1 RES1   0.0000
    11 C        0.8909  24.3477  10.1922   C.3       1 RES1   0.0000
    12 C       -0.5826  24.3162  10.6571   C.3       1 RES1   0.0000
    13 C       -0.4775  24.4078  12.1937   C.3       1 RES1   0.0000
    14 O        0.7569  23.7312  12.4385   O.3       1 RES1   0.0000
    15 C       -1.6438  23.7143  12.9295   C.3       1 RES1   0.0000
    16 O       -2.3783  24.6649  13.7107   O.3       1 RES1   0.0000
    17 P       -2.9368  24.3252  15.1722   P.3       1 RES1   0.0000
    18 O       -2.2056  23.1386  15.6993   O.2       1 RES1   0.0000
    19 O       -2.6892  25.5685  16.1481   O.3       1 RES1   0.0000
    20 O       -4.5047  24.0146  15.0720   O.3       1 RES1   0.0000
    21 P       -5.0758  23.4476  16.4558   P.3       1 RES1   0.0000
    22 O       -5.6031  22.0721  16.2325   O.2       1 RES1   0.0000
    23 O       -6.2566  24.3945  16.9748   O.3       1 RES1   0.0000
    24 O       -3.8950  23.3966  17.5368   O.3       1 RES1   0.0000
    25 P       -4.3191  22.5972  18.8582   P.3       1 RES1   0.0000
    26 O       -5.6449  23.0760  19.3411   O.2       1 RES1   0.0000
    27 O       -4.3919  21.0254  18.5656   O.3       1 RES1   0.0000
    28 O       -3.2252  22.8608  19.9955   O.3       1 RES1   0.0000
    29 O       -1.3282  25.4077  10.1050   O.3       1 RES1   0.0000
    30 O        1.1877  25.5626   9.4941   O.3       1 RES1   0.0000
    31 N        5.8558  20.0857  11.8482   N.pl3     1 RES1   0.0000
    32 H1       2.0884  19.9661  14.2337   H         1 RES1   0.0000
    33 H2       3.9927  24.5138   9.9493   H         1 RES1   0.0000
    34 H3       1.9873  25.2706  11.8336   H         1 RES1   0.0000
    35 H4       1.0916  23.4762   9.5493   H         1 RES1   0.0000
    36 H5      -1.0279  23.3508  10.3699   H         1 RES1   0.0000
    37 H6      -0.3944  25.4624  12.4985   H         1 RES1   0.0000
    38 H7      -2.3279  23.2520  12.2027   H         1 RES1   0.0000
    39 H8      -1.2427  22.9358  13.5955   H         1 RES1   0.0000
    40 H9      -3.3785  26.2103  16.0242   H         1 RES1   0.0000
    41 H10     -5.8878  25.1281  17.4527   H         1 RES1   0.0000
    42 H11     -4.7523  20.5715  19.3182   H         1 RES1   0.0000
    43 H12     -3.3918  23.7003  20.4078   H         1 RES1   0.0000
    44 H13     -0.7541  26.1396   9.9108   H         1 RES1   0.0000
    45 H14      2.0208  25.9161   9.7852   H         1 RES1   0.0000
    46 H15      6.1807  19.1964  12.2537   H         1 RES1   0.0000
    47 H16      6.4384  20.5780  11.1556   H         1 RES1   0.0000
    48 ****     4.1834  19.1194  13.5299   Du        1 RES1   0.0000
    49 ****     1.3355  22.0315  13.2910   Du        1 RES1   0.0000
    50 ****     5.6096  22.5529  10.3380   Du        1 RES1   0.0000
    51 ****     0.6457  22.7474  12.2979   Du        1 RES1   0.0000
    52 ****     1.0649  23.9015  13.3745   Du        1 RES1   0.0000
    53 ****    -2.6813  22.2657  15.8076   Du        1 RES1   0.0000
    54 ****    -1.2392  23.2152  15.9448   Du        1 RES1   0.0000
    55 ****    -1.8044  25.9850  15.9394   Du        1 RES1   0.0000
    56 ****    -2.6937  25.2534  17.0972   Du        1 RES1   0.0000
    57 ****    -6.5340  21.9429  15.8907   Du        1 RES1   0.0000
    58 ****    -5.0262  21.2782  16.4245   Du        1 RES1   0.0000
    59 ****    -6.8606  23.8737  17.5780   Du        1 RES1   0.0000
    60 ****    -6.7789  24.7348  16.1930   Du        1 RES1   0.0000
    61 ****    -5.7233  23.5099  20.2387   Du        1 RES1   0.0000
    62 ****    -6.4564  22.9635  18.7676   Du        1 RES1   0.0000
    63 ****    -3.4720  20.6801  18.3798   Du        1 RES1   0.0000
    64 ****    -4.9758  20.8633  17.7702   Du        1 RES1   0.0000
    65 ****    -2.3131  22.8662  19.5856   Du        1 RES1   0.0000
    66 ****    -3.2776  22.1360  20.6825   Du        1 RES1   0.0000
    67 ****    -2.0213  25.6992  10.7642   Du        1 RES1   0.0000
    68 ****    -1.7751  25.1076   9.2622   Du        1 RES1   0.0000
    69 ****     0.4655  26.2307   9.6732   Du        1 RES1   0.0000
    70 ****     1.2335  25.3763   8.5127   Du        1 RES1   0.0000
@<TRIPOS>BOND
     1     1     2   ar
     2     2     3   ar
     3     3     4   ar
     4     4     5   ar
     5     5     6   ar
     6     1     6   ar
     7     5     7   ar
     8     7     8   ar
     9     8     9   ar
    10     4     9   ar
    11     7    10    1
    12    10    11    1
    13    11    12    1
    14    12    13    1
    15    13    14    1
    16    10    14    1
    17    13    15    1
    18    15    16    1
    19    16    17    1
    20    17    18    2
    21    17    19    1
    22    17    20    1
    23    20    21    1
    24    21    22    2
    25    21    23    1
    26    21    24    1
    27    24    25    1
    28    25    26    2
    29    25    27    1
    30    25    28    1
    31    12    29    1
    32    11    30    1
    33     3    31    1
    34     1    32    1
    35     8    33    1
    36    10    34    1
    37    11    35    1
    38    12    36    1
    39    13    37    1
    40    15    38    1
    41    15    39    1
    42    19    40    1
    43    23    41    1
    44    27    42    1
    45    28    43    1
    46    29    44    1
    47    30    45    1
    48    31    46    1
    49    31    47    1
    50     2    48    1
    51     6    49    1
    52     9    50    1
    53    14    51    1
    54    14    52    1
    55    18    53    1
    56    18    54    1
    57    19    55    1
    58    19    56    1
    59    22    57    1
    60    22    58    1
    61    23    59    1
    62    23    60    1
    63    26    61    1
    64    26    62    1
    65    27    63    1
    66    27    64    1
    67    28    65    1
    68    28    66    1
    69    29    67    1
    70    29    68    1
    71    30    69    1
    72    30    70    1
@<TRIPOS>SUBSTRUCTURE
     1 RES1        1 GROUP             0 ****  ****    0  
@<TRIPOS>MOLECULE
52.6823
    70    72     1     0     0
SMALL
NO_CHARGES
****
Generated from the CSD

@<TRIPOS>ATOM
     1 C        2.2257  24.7602  11.6417   C.ar      1 RES1   0.0000
     2 N        2.3161  24.3572  10.3533   N.ar      1 RES1   0.0000
     3 C        1.3649  23.5879   9.7831   C.ar      1 RES1   0.0000
     4 C        0.2821  23.2247  10.5787   C.ar      1 RES1   0.0000
     5 C        0.2191  23.6468  11.8973   C.ar      1 RES1   0.0000
     6 N        1.1834  24.4172  12.4285   N.ar      1 RES1   0.0000
     7 N       -0.9130  23.1337  12.4083   N.ar      1 RES1   0.0000
     8 C       -1.5521  22.4259  11.4545   C.ar      1 RES1   0.0000
     9 N       -0.8135  22.4848  10.3271   N.ar      1 RES1   0.0000
    10 C       -1.3571  23.3105  13.6834   C.3       1 RES1   0.0000
    11 C       -1.7326  24.7757  13.9937   C.3       1 RES1   0.0000
    12 C       -3.0267  24.6612  14.8308   C.3       1 RES1   0.0000
    13 C       -3.1605  23.1448  15.0815   C.3       1 RES1   0.0000
    14 O       -2.5805  22.6044  13.8928   O.3       1 RES1   0.0000
    15 C       -4.6228  22.6781  15.2450   C.3       1 RES1   0.0000
    16 O       -5.3425  23.5772  16.0976   O.3       1 RES1   0.0000
    17 P       -5.7166  23.2102  17.6104   P.3       1 RES1   0.0000
    18 O       -5.4214  21.7675  17.8391   O.2       1 RES1   0.0000
    19 O       -4.8350  24.0902  18.6142   O.3       1 RES1   0.0000
    20 O       -7.2725  23.5054  17.8491   O.3       1 RES1   0.0000
    21 P       -7.7190  23.1111  19.3349   P.3       1 RES1   0.0000
    22 O       -7.4944  21.6517  19.5347   O.2       1 RES1   0.0000
    23 O       -9.2713  23.4444  19.5328   O.3       1 RES1   0.0000
    24 O       -6.8397  23.9348  20.3902   O.3       1 RES1   0.0000
    25 P       -5.9415  22.9770  21.3072   P.3       1 RES1   0.0000
    26 O       -5.1714  23.7882  22.2917   O.2       1 RES1   0.0000
    27 O       -6.8589  21.9211  22.0851   O.3       1 RES1   0.0000
    28 O       -4.9153  22.1805  20.3735   O.3       1 RES1   0.0000
    29 O       -2.9248  25.3996  16.0541   O.3       1 RES1   0.0000
    30 O       -0.6909  25.4198  14.7363   O.3       1 RES1   0.0000
    31 N        1.4557  23.1843   8.4977   N.pl3     1 RES1   0.0000
    32 H1       3.0146  25.3777  12.0553   H         1 RES1   0.0000
    33 H2      -2.4933  21.9004  11.5705   H         1 RES1   0.0000
    34 H3      -0.6172  22.9521  14.4158   H         1 RES1   0.0000
    35 H4      -1.9434  25.3311  13.0663   H         1 RES1   0.0000
    36 H5      -3.8761  25.0167  14.2268   H         1 RES1   0.0000
    37 H6      -2.5580  22.8579  15.9571   H         1 RES1   0.0000
    38 H7      -5.1216  22.6466  14.2652   H         1 RES1   0.0000
    39 H8      -4.6364  21.6724  15.6909   H         1 RES1   0.0000
    40 H9      -5.1007  25.0003  18.5541   H         1 RES1   0.0000
    41 H10     -9.7577  23.1537  18.7703   H         1 RES1   0.0000
    42 H11     -7.0019  21.1542  21.5432   H         1 RES1   0.0000
    43 H12     -5.2838  21.3350  20.1458   H         1 RES1   0.0000
    44 H13     -3.3332  26.2529  15.9639   H         1 RES1   0.0000
    45 H14     -0.9329  26.3175  14.9347   H         1 RES1   0.0000
    46 H15      2.2666  23.4642   7.9276   H         1 RES1   0.0000
    47 H16      0.7164  22.5965   8.0862   H         1 RES1   0.0000
    48 ****     3.1077  24.6363   9.8097   Du        1 RES1   0.0000
    49 ****     1.1307  24.7271  13.3778   Du        1 RES1   0.0000
    50 ****    -1.0409  22.0528   9.4544   Du        1 RES1   0.0000
    51 ****    -3.1952  22.7398  13.1157   Du        1 RES1   0.0000
    52 ****    -2.4004  21.6277  14.0091   Du        1 RES1   0.0000
    53 ****    -6.1576  21.1410  18.0950   Du        1 RES1   0.0000
    54 ****    -4.4872  21.4260  17.7367   Du        1 RES1   0.0000
    55 ****    -3.8690  24.0081  18.3691   Du        1 RES1   0.0000
    56 ****    -4.9703  23.7645  19.5499   Du        1 RES1   0.0000
    57 ****    -7.6752  21.2354  20.4257   Du        1 RES1   0.0000
    58 ****    -7.1628  21.0886  18.7777   Du        1 RES1   0.0000
    59 ****    -9.3885  24.4310  19.6466   Du        1 RES1   0.0000
    60 ****    -9.6126  22.9723  20.3456   Du        1 RES1   0.0000
    61 ****    -5.4340  23.7850  23.2566   Du        1 RES1   0.0000
    62 ****    -4.3919  24.3358  21.9876   Du        1 RES1   0.0000
    63 ****    -7.7394  22.3431  22.3010   Du        1 RES1   0.0000
    64 ****    -6.4036  21.6477  22.9324   Du        1 RES1   0.0000
    65 ****    -4.0537  22.0474  20.8632   Du        1 RES1   0.0000
    66 ****    -4.7470  22.7060  19.5395   Du        1 RES1   0.0000
    67 ****    -1.9595  25.5199  16.2861   Du        1 RES1   0.0000
    68 ****    -3.3822  24.8916  16.7840   Du        1 RES1   0.0000
    69 ****     0.1500  25.4169  14.1951   Du        1 RES1   0.0000
    70 ****    -0.5392  24.9227  15.5906   Du        1 RES1   0.0000
@<TRIPOS>BOND
     1     1     2   ar
     2     2     3   ar
     3     3     4   ar
     4     4     5   ar
     5     5     6   ar
     6     1     6   ar
     7     5     7   ar
     8     7     8   ar
     9     8     9   ar
    10     4     9   ar
    11     7    10    1
    12    10    11    1
    13    11    12    1
    14    12    13    1
    15    13    14    1
    16    10    14    1
    17    13    15    1
    18    15    16    1
    19    16    17    1
    20    17    18    2
    21    17    19    1
    22    17    20    1
    23    20    21    1
    24    21    22    2
    25    21    23    1
    26    21    24    1
    27    24    25    1
    28    25    26    2
    29    25    27    1
    30    25    28    1
    31    12    29    1
    32    11    30    1
    33     3    31    1
    34     1    32    1
    35     8    33    1
    36    10    34    1
    37    11    35    1
    38    12    36    1
    39    13    37    1
    40    15    38    1
    41    15    39    1
    42    19    40    1
    43    23    41    1
    44    27    42    1
    45    28    43    1
    46    29    44    1
    47    30    45    1
    48    31    46    1
    49    31    47    1
    50     2    48    1
    51     6    49    1
    52     9    50    1
    53    14    51    1
    54    14    52    1
    55    18    53    1
    56    18    54    1
    57    19    55    1
    58    19    56    1
    59    22    57    1
    60    22    58    1
    61    23    59    1
    62    23    60    1
    63    26    61    1
    64    26    62    1
    65    27    63    1
    66    27    64    1
    67    28    65    1
    68    28    66    1
    69    29    67    1
    70    29    68    1
    71    30    69    1
    72    30    70    1
@<TRIPOS>SUBSTRUCTURE
     1 RES1        1 GROUP             0 ****  ****    0  
@<TRIPOS>MOLECULE
52.0428
    70    72     1     0     0
SMALL
NO_CHARGES
****
Generated from the CSD

@<TRIPOS>ATOM
     1 C        0.1668  23.3076   9.9518   C.ar      1 RES1   0.0000
     2 N        1.2366  24.1291  10.0586   N.ar      1 RES1   0.0000
     3 C        1.3940  24.9536  11.1155   C.ar      1 RES1   0.0000
     4 C        0.4061  24.9237  12.0956   C.ar      1 RES1   0.0000
     5 C       -0.6821  24.0769  11.9566   C.ar      1 RES1   0.0000
     6 N       -0.8014  23.2657  10.8919   N.ar      1 RES1   0.0000
     7 N       -1.4625  24.2792  13.0317   N.ar      1 RES1   0.0000
     8 C       -0.8917  25.2048  13.8294   C.ar      1 RES1   0.0000
     9 N        0.2611  25.5997  13.2502   N.ar      1 RES1   0.0000
    10 C       -2.6380  23.6410  13.2877   C.3       1 RES1   0.0000
    11 C       -2.6382  22.8963  14.6403   C.3       1 RES1   0.0000
    12 C       -4.0430  23.1753  15.2211   C.3       1 RES1   0.0000
    13 C       -4.7756  23.8876  14.0651   C.3       1 RES1   0.0000
    14 O       -3.7018  24.5832  13.4290   O.3       1 RES1   0.0000
    15 C       -5.8647  24.8710  14.5443   C.3       1 RES1   0.0000
    16 O       -5.8691  24.9544  15.9747   O.3       1 RES1   0.0000
    17 P       -6.9514  24.1920  16.8752   P.3       1 RES1   0.0000
    18 O       -6.8655  22.7316  16.5914   O.2       1 RES1   0.0000
    19 O       -6.6397  24.4434  18.4241   O.3       1 RES1   0.0000
    20 O       -8.4109  24.7448  16.5160   O.3       1 RES1   0.0000
    21 P       -8.5066  26.3266  16.7424   P.3       1 RES1   0.0000
    22 O       -8.4566  27.0072  15.4179   O.2       1 RES1   0.0000
    23 O       -7.2749  26.8138  17.6400   O.3       1 RES1   0.0000
    24 O       -9.8904  26.6765  17.4692   O.3       1 RES1   0.0000
    25 P      -10.0999  28.2547  17.6432   P.3       1 RES1   0.0000
    26 O       -8.9501  28.9912  17.0467   O.2       1 RES1   0.0000
    27 O      -11.4586  28.7227  16.9386   O.3       1 RES1   0.0000
    28 O      -10.1831  28.5964  19.2039   O.3       1 RES1   0.0000
    29 O       -4.7001  21.9618  15.6050   O.3       1 RES1   0.0000
    30 O       -2.4274  21.4930  14.4465   O.3       1 RES1   0.0000
    31 N        2.4609  25.7745  11.2216   N.pl3     1 RES1   0.0000
    32 H1       0.0842  22.6631   9.0843   H         1 RES1   0.0000
    33 H2      -1.2873  25.5700  14.7704   H         1 RES1   0.0000
    34 H3      -2.8960  22.9419  12.4771   H         1 RES1   0.0000
    35 H4      -1.8729  23.3103  15.3156   H         1 RES1   0.0000
    36 H5      -3.9460  23.8584  16.0794   H         1 RES1   0.0000
    37 H6      -5.1989  23.1402  13.3764   H         1 RES1   0.0000
    38 H7      -5.6761  25.8737  14.1335   H         1 RES1   0.0000
    39 H8      -6.8493  24.5187  14.2023   H         1 RES1   0.0000
    40 H9      -6.3962  25.3523  18.5545   H         1 RES1   0.0000
    41 H10     -7.0529  27.7095  17.4142   H         1 RES1   0.0000
    42 H11    -11.8965  27.9751  16.5492   H         1 RES1   0.0000
    43 H12     -9.3691  28.3492  19.6268   H         1 RES1   0.0000
    44 H13     -4.9826  22.0075  16.5112   H         1 RES1   0.0000
    45 H14     -1.8297  21.1546  15.1038   H         1 RES1   0.0000
    46 H15      3.1795  25.7807  10.4838   H         1 RES1   0.0000
    47 H16      2.5573  26.3953  12.0382   H         1 RES1   0.0000
    48 ****     1.9281  24.1252   9.3362   Du        1 RES1   0.0000
    49 ****    -1.5836  22.6497  10.7988   Du        1 RES1   0.0000
    50 ****     0.8982  26.2780  13.6160   Du        1 RES1   0.0000
    51 ****    -3.4076  25.3548  13.9929   Du        1 RES1   0.0000
    52 ****    -3.9896  24.9169  12.5314   Du        1 RES1   0.0000
    53 ****    -6.3217  22.4034  15.8191   Du        1 RES1   0.0000
    54 ****    -7.3518  22.0798  17.1734   Du        1 RES1   0.0000
    55 ****    -5.8868  23.8519  18.7129   Du        1 RES1   0.0000
    56 ****    -7.4539  24.2352  18.9660   Du        1 RES1   0.0000
    57 ****    -9.2244  27.5729  15.1171   Du        1 RES1   0.0000
    58 ****    -7.6552  26.8984  14.8298   Du        1 RES1   0.0000
    59 ****    -6.4861  26.2225  17.4724   Du        1 RES1   0.0000
    60 ****    -7.5276  26.7665  18.6064   Du        1 RES1   0.0000
    61 ****    -8.9961  29.9838  16.9344   Du        1 RES1   0.0000
    62 ****    -8.1324  28.4928  16.7585   Du        1 RES1   0.0000
    63 ****   -11.2486  29.3919  16.2257   Du        1 RES1   0.0000
    64 ****   -12.0589  29.1399  17.6209   Du        1 RES1   0.0000
    65 ****   -10.9401  28.0893  19.6160   Du        1 RES1   0.0000
    66 ****   -10.3356  29.5776  19.3224   Du        1 RES1   0.0000
    67 ****    -4.0663  21.1960  15.4964   Du        1 RES1   0.0000
    68 ****    -5.4977  21.8200  15.0187   Du        1 RES1   0.0000
    69 ****    -2.0389  21.3402  13.5378   Du        1 RES1   0.0000
    70 ****    -3.3027  21.0149  14.5195   Du        1 RES1   0.0000
@<TRIPOS>BOND
     1     1     2   ar
     2     2     3   ar
     3     3     4   ar
     4     4     5   ar
     5     5     6   ar
     6     1     6   ar
     7     5     7   ar
     8     7     8   ar
     9     8     9   ar
    10     4     9   ar
    11     7    10    1
    12    10    11    1
    13    11    12    1
    14    12    13    1
    15    13    14    1
    16    10    14    1
    17    13    15    1
    18    15    16    1
    19    16    17    1
    20    17    18    2
    21    17    19    1
    22    17    20    1
    23    20    21    1
    24    21    22    2
    25    21    23    1
    26    21    24    1
    27    24    25    1
    28    25    26    2
    29    25    27    1
    30    25    28    1
    31    12    29    1
    32    11    30    1
    33     3    31    1
    34     1    32    1
    35     8    33    1
    36    10    34    1
    37    11    35    1
    38    12    36    1
    39    13    37    1
    40    15    38    1
    41    15    39    1
    42    19    40    1
    43    23    41    1
    44    27    42    1
    45    28    43    1
    46    29    44    1
    47    30    45    1
    48    31    46    1
    49    31    47    1
    50     2    48    1
    51     6    49    1
    52     9    50    1
    53    14    51    1
    54    14    52    1
    55    18    53    1
    56    18    54    1
    57    19    55    1
    58    19    56    1
    59    22    57    1
    60    22    58    1
    61    23    59    1
    62    23    60    1
    63    26    61    1
    64    26    62    1
    65    27    63    1
    66    27    64    1
    67    28    65    1
    68    28    66    1
    69    29    67    1
    70    29    68    1
    71    30    69    1
    72    30    70    1
@<TRIPOS>SUBSTRUCTURE
     1 RES1        1 GROUP             0 ****  ****    0  
@<TRIPOS>MOLECULE
49.7222
    70    72     1     0     0
SMALL
NO_CHARGES
****
Generated from the CSD

@<TRIPOS>ATOM
     1 C       -1.3683  23.5174   9.8462   C.ar      1 RES1   0.0000
     2 N       -0.2410  24.2558   9.7258   N.ar      1 RES1   0.0000
     3 C        0.2769  24.9339  10.7716   C.ar      1 RES1   0.0000
     4 C       -0.3995  24.8418  11.9846   C.ar      1 RES1   0.0000
     5 C       -1.5556  24.0832  12.0770   C.ar      1 RES1   0.0000
     6 N       -2.0380  23.4170  11.0144   N.ar      1 RES1   0.0000
     7 N       -1.9863  24.1973  13.3449   N.ar      1 RES1   0.0000
     8 C       -1.1356  24.9833  14.0358   C.ar      1 RES1   0.0000
     9 N       -0.1574  25.3783  13.1948   N.ar      1 RES1   0.0000
    10 C       -3.0977  23.6021  13.8598   C.3       1 RES1   0.0000
    11 C       -2.7692  22.4915  14.8809   C.3       1 RES1   0.0000
    12 C       -3.8164  22.6901  15.9999   C.3       1 RES1   0.0000
    13 C       -4.7595  23.7666  15.4236   C.3       1 RES1   0.0000
    14 O       -3.8615  24.5369  14.6226   O.3       1 RES1   0.0000
    15 C       -5.4239  24.6422  16.5075   C.3       1 RES1   0.0000
    16 O       -6.8479  24.4870  16.4725   O.3       1 RES1   0.0000
    17 P       -7.7637  24.6769  17.7720   P.3       1 RES1   0.0000
    18 O       -8.1772  23.3330  18.2656   O.2       1 RES1   0.0000
    19 O       -6.9302  25.4212  18.9168   O.3       1 RES1   0.0000
    20 O       -9.0500  25.5470  17.3808   O.3       1 RES1   0.0000
    21 P       -9.0050  25.9949  15.8446   P.3       1 RES1   0.0000
    22 O      -10.2572  26.7348  15.5210   O.2       1 RES1   0.0000
    23 O       -8.8946  24.6989  14.9128   O.3       1 RES1   0.0000
    24 O       -7.7436  26.9531  15.6073   O.3       1 RES1   0.0000
    25 P       -7.7067  28.1724  16.6450   P.3       1 RES1   0.0000
    26 O       -8.9010  28.1220  17.5346   O.2       1 RES1   0.0000
    27 O       -6.3759  28.1156  17.5324   O.3       1 RES1   0.0000
    28 O       -7.7244  29.5477  15.8279   O.3       1 RES1   0.0000
    29 O       -4.5092  21.4703  16.2898   O.3       1 RES1   0.0000
    30 O       -2.8929  21.1973  14.2798   O.3       1 RES1   0.0000
    31 N        1.4012  25.6721  10.6513   N.pl3     1 RES1   0.0000
    32 H1      -1.7458  22.9900   8.9779   H         1 RES1   0.0000
    33 H2      -1.2204  25.2528  15.0825   H         1 RES1   0.0000
    34 H3      -3.7383  23.1968  13.0612   H         1 RES1   0.0000
    35 H4      -1.7581  22.6274  15.2960   H         1 RES1   0.0000
    36 H5      -3.3110  23.0781  16.8981   H         1 RES1   0.0000
    37 H6      -5.5195  23.2916  14.7843   H         1 RES1   0.0000
    38 H7      -5.0620  24.3496  17.5042   H         1 RES1   0.0000
    39 H8      -5.1733  25.6981  16.3267   H         1 RES1   0.0000
    40 H9      -7.1025  26.3546  18.8776   H         1 RES1   0.0000
    41 H10     -8.1682  24.8031  14.3095   H         1 RES1   0.0000
    42 H11     -6.3340  27.2911  18.0022   H         1 RES1   0.0000
    43 H12     -7.3740  30.2440  16.3709   H         1 RES1   0.0000
    44 H13     -4.5506  21.3248  17.2280   H         1 RES1   0.0000
    45 H14     -2.5105  20.5335  14.8427   H         1 RES1   0.0000
    46 H15      1.8849  25.7268   9.7436   H         1 RES1   0.0000
    47 H16      1.7757  26.1813  11.4648   H         1 RES1   0.0000
    48 ****     0.2202  24.3002   8.8396   Du        1 RES1   0.0000
    49 ****    -2.8678  22.8637  11.0865   Du        1 RES1   0.0000
    50 ****     0.6148  25.9684  13.4302   Du        1 RES1   0.0000
    51 ****    -3.2588  25.0818  15.2056   Du        1 RES1   0.0000
    52 ****    -4.3739  25.1429  14.0142   Du        1 RES1   0.0000
    53 ****    -9.1176  23.1793  18.5689   Du        1 RES1   0.0000
    54 ****    -7.5142  22.5848  18.2936   Du        1 RES1   0.0000
    55 ****    -5.9536  25.2563  18.7789   Du        1 RES1   0.0000
    56 ****    -7.2047  25.0689  19.8116   Du        1 RES1   0.0000
    57 ****   -10.9677  26.8432  16.2163   Du        1 RES1   0.0000
    58 ****   -10.3870  27.1229  14.6087   Du        1 RES1   0.0000
    59 ****    -9.7434  24.5867  14.3961   Du        1 RES1   0.0000
    60 ****    -8.7417  23.8911  15.4822   Du        1 RES1   0.0000
    61 ****    -8.7839  28.0562  18.5256   Du        1 RES1   0.0000
    62 ****    -9.8196  28.1539  17.1407   Du        1 RES1   0.0000
    63 ****    -6.3825  28.8705  18.1881   Du        1 RES1   0.0000
    64 ****    -5.5769  28.1984  16.9368   Du        1 RES1   0.0000
    65 ****    -8.6644  29.7687  15.5681   Du        1 RES1   0.0000
    66 ****    -7.1645  29.4533  15.0048   Du        1 RES1   0.0000
    67 ****    -4.0262  20.7076  15.8597   Du        1 RES1   0.0000
    68 ****    -5.4384  21.5250  15.9242   Du        1 RES1   0.0000
    69 ****    -2.4188  21.1960  13.3993   Du        1 RES1   0.0000
    70 ****    -3.8610  20.9911  14.1374   Du        1 RES1   0.0000
@<TRIPOS>BOND
     1     1     2   ar
     2     2     3   ar
     3     3     4   ar
     4     4     5   ar
     5     5     6   ar
     6     1     6   ar
     7     5     7   ar
     8     7     8   ar
     9     8     9   ar
    10     4     9   ar
    11     7    10    1
    12    10    11    1
    13    11    12    1
    14    12    13    1
    15    13    14    1
    16    10    14    1
    17    13    15    1
    18    15    16    1
    19    16    17    1
    20    17    18    2
    21    17    19    1
    22    17    20    1
    23    20    21    1
    24    21    22    2
    25    21    23    1
    26    21    24    1
    27    24    25    1
    28    25    26    2
    29    25    27    1
    30    25    28    1
    31    12    29    1
    32    11    30    1
    33     3    31    1
    34     1    32    1
    35     8    33    1
    36    10    34    1
    37    11    35    1
    38    12    36    1
    39    13    37    1
    40    15    38    1
    41    15    39    1
    42    19    40    1
    43    23    41    1
    44    27    42    1
    45    28    43    1
    46    29    44    1
    47    30    45    1
    48    31    46    1
    49    31    47    1
    50     2    48    1
    51     6    49    1
    52     9    50    1
    53    14    51    1
    54    14    52    1
    55    18    53    1
    56    18    54    1
    57    19    55    1
    58    19    56    1
    59    22    57    1
    60    22    58    1
    61    23    59    1
    62    23    60    1
    63    26    61    1
    64    26    62    1
    65    27    63    1
    66    27    64    1
    67    28    65    1
    68    28    66    1
    69    29    67    1
    70    29    68    1
    71    30    69    1
    72    30    70    1
@<TRIPOS>SUBSTRUCTURE
     1 RES1        1 GROUP             0 ****  ****    0  
@<TRIPOS>MOLECULE
48.6961
    70    72     1     0     0
SMALL
NO_CHARGES
****
Generated from the CSD

@<TRIPOS>ATOM
     1 C       -2.5903  23.6645  10.5854   C.ar      1 RES1   0.0000
     2 N       -1.3848  23.9659  10.0501   N.ar      1 RES1   0.0000
     3 C       -0.3939  24.5026  10.7929   C.ar      1 RES1   0.0000
     4 C       -0.6645  24.7342  12.1385   C.ar      1 RES1   0.0000
     5 C       -1.9106  24.4217  12.6581   C.ar      1 RES1   0.0000
     6 N       -2.8709  23.8829  11.8880   N.ar      1 RES1   0.0000
     7 N       -1.8800  24.7673  13.9564   N.ar      1 RES1   0.0000
     8 C       -0.6635  25.2664  14.2565   C.ar      1 RES1   0.0000
     9 N        0.0844  25.2437  13.1338   N.ar      1 RES1   0.0000
    10 C       -2.9079  24.6237  14.8381   C.3       1 RES1   0.0000
    11 C       -4.2365  24.2303  14.1570   C.3       1 RES1   0.0000
    12 C       -4.8496  23.1801  15.1109   C.3       1 RES1   0.0000
    13 C       -3.9117  23.2150  16.3355   C.3       1 RES1   0.0000
    14 O       -2.6585  23.5360  15.7291   O.3       1 RES1   0.0000
    15 C       -3.8345  21.8682  17.0858   C.3       1 RES1   0.0000
    16 O       -4.9930  21.6871  17.9093   O.3       1 RES1   0.0000
    17 P       -5.0399  22.1568  19.4392   P.3       1 RES1   0.0000
    18 O       -5.2135  20.9548  20.3029   O.2       1 RES1   0.0000
    19 O       -3.6678  22.8838  19.8239   O.3       1 RES1   0.0000
    20 O       -6.2665  23.1672  19.6370   O.3       1 RES1   0.0000
    21 P       -6.5820  23.4036  21.1885   P.3       1 RES1   0.0000
    22 O       -5.3309  23.8309  21.8755   O.2       1 RES1   0.0000
    23 O       -7.1105  22.0412  21.8402   O.3       1 RES1   0.0000
    24 O       -7.6897  24.5511  21.3366   O.3       1 RES1   0.0000
    25 P       -9.0173  24.0205  22.0582   P.3       1 RES1   0.0000
    26 O       -9.5934  22.8794  21.2924   O.2       1 RES1   0.0000
    27 O       -8.6953  23.5524  23.5545   O.3       1 RES1   0.0000
    28 O      -10.0887  25.2075  22.1076   O.3       1 RES1   0.0000
    29 O       -6.1982  23.5146  15.4590   O.3       1 RES1   0.0000
    30 O       -5.0938  25.3697  14.0216   O.3       1 RES1   0.0000
    31 N        0.8088  24.8048  10.2585   N.pl3     1 RES1   0.0000
    32 H1      -3.3548  23.2345   9.9487   H         1 RES1   0.0000
    33 H2      -0.3406  25.6244  15.2276   H         1 RES1   0.0000
    34 H3      -3.0511  25.5381  15.4347   H         1 RES1   0.0000
    35 H4      -4.0515  23.7695  13.1739   H         1 RES1   0.0000
    36 H5      -4.8014  22.1899  14.6313   H         1 RES1   0.0000
    37 H6      -4.2181  24.0247  17.0156   H         1 RES1   0.0000
    38 H7      -3.7798  21.0374  16.3670   H         1 RES1   0.0000
    39 H8      -2.9367  21.8567  17.7217   H         1 RES1   0.0000
    40 H9      -3.8530  23.7553  20.1536   H         1 RES1   0.0000
    41 H10     -8.0520  21.9807  21.7286   H         1 RES1   0.0000
    42 H11     -9.0289  22.6748  23.6990   H         1 RES1   0.0000
    43 H12     -9.8217  25.8494  22.7551   H         1 RES1   0.0000
    44 H13     -6.4096  24.3943  15.1682   H         1 RES1   0.0000
    45 H14     -4.8329  26.0536  14.6281   H         1 RES1   0.0000
    46 H15      0.9867  24.6258   9.2599   H         1 RES1   0.0000
    47 H16      1.5485  25.2148  10.8469   H         1 RES1   0.0000
    48 ****    -1.2239  23.7865   9.0796   Du        1 RES1   0.0000
    49 ****    -3.7662  23.6506  12.2680   Du        1 RES1   0.0000
    50 ****     1.0322  25.5524  13.0549   Du        1 RES1   0.0000
    51 ****    -2.3073  22.7481  15.2231   Du        1 RES1   0.0000
    52 ****    -1.9956  23.8060  16.4274   Du        1 RES1   0.0000
    53 ****    -5.7122  20.1594  19.9584   Du        1 RES1   0.0000
    54 ****    -4.8314  20.9437  21.2269   Du        1 RES1   0.0000
    55 ****    -3.0870  22.9507  19.0126   Du        1 RES1   0.0000
    56 ****    -3.1960  22.3540  20.5288   Du        1 RES1   0.0000
    57 ****    -4.4796  23.9148  21.3575   Du        1 RES1   0.0000
    58 ****    -5.3424  24.0339  22.8546   Du        1 RES1   0.0000
    59 ****    -6.8891  22.0304  22.8154   Du        1 RES1   0.0000
    60 ****    -6.6709  21.2640  21.3900   Du        1 RES1   0.0000
    61 ****   -10.0127  22.1123  21.7780   Du        1 RES1   0.0000
    62 ****    -9.5608  22.8808  20.2930   Du        1 RES1   0.0000
    63 ****    -9.1291  24.1819  24.1991   Du        1 RES1   0.0000
    64 ****    -7.7057  23.5582  23.6977   Du        1 RES1   0.0000
    65 ****   -10.9844  24.8378  22.3548   Du        1 RES1   0.0000
    66 ****   -10.1445  25.6436  21.2095   Du        1 RES1   0.0000
    67 ****    -6.3042  23.4622  16.4520   Du        1 RES1   0.0000
    68 ****    -6.8212  22.8655  15.0226   Du        1 RES1   0.0000
    69 ****    -6.0363  25.0982  14.2163   Du        1 RES1   0.0000
    70 ****    -5.0338  25.7181  13.0861   Du        1 RES1   0.0000
@<TRIPOS>BOND
     1     1     2   ar
     2     2     3   ar
     3     3     4   ar
     4     4     5   ar
     5     5     6   ar
     6     1     6   ar
     7     5     7   ar
     8     7     8   ar
     9     8     9   ar
    10     4     9   ar
    11     7    10    1
    12    10    11    1
    13    11    12    1
    14    12    13    1
    15    13    14    1
    16    10    14    1
    17    13    15    1
    18    15    16    1
    19    16    17    1
    20    17    18    2
    21    17    19    1
    22    17    20    1
    23    20    21    1
    24    21    22    2
    25    21    23    1
    26    21    24    1
    27    24    25    1
    28    25    26    2
    29    25    27    1
    30    25    28    1
    31    12    29    1
    32    11    30    1
    33     3    31    1
    34     1    32    1
    35     8    33    1
    36    10    34    1
    37    11    35    1
    38    12    36    1
    39    13    37    1
    40    15    38    1
    41    15    39    1
    42    19    40    1
    43    23    41    1
    44    27    42    1
    45    28    43    1
    46    29    44    1
    47    30    45    1
    48    31    46    1
    49    31    47    1
    50     2    48    1
    51     6    49    1
    52     9    50    1
    53    14    51    1
    54    14    52    1
    55    18    53    1
    56    18    54    1
    57    19    55    1
    58    19    56    1
    59    22    57    1
    60    22    58    1
    61    23    59    1
    62    23    60    1
    63    26    61    1
    64    26    62    1
    65    27    63    1
    66    27    64    1
    67    28    65    1
    68    28    66    1
    69    29    67    1
    70    29    68    1
    71    30    69    1
    72    30    70    1
@<TRIPOS>SUBSTRUCTURE
     1 RES1        1 GROUP             0 ****  ****    0  
@<TRIPOS>MOLECULE
48.3687
    70    72     1     0     0
SMALL
NO_CHARGES
****
Generated from the CSD

@<TRIPOS>ATOM
     1 C       -2.6258  24.2974  11.0125   C.ar      1 RES1   0.0000
     2 N       -1.6591  23.3515  11.0500   N.ar      1 RES1   0.0000
     3 C       -1.4357  22.6101  12.1555   C.ar      1 RES1   0.0000
     4 C       -2.2444  22.8599  13.2604   C.ar      1 RES1   0.0000
     5 C       -3.2225  23.8396  13.1956   C.ar      1 RES1   0.0000
     6 N       -3.4190  24.5540  12.0746   N.ar      1 RES1   0.0000
     7 N       -3.8195  23.8627  14.3993   N.ar      1 RES1   0.0000
     8 C       -3.2568  22.9298  15.1943   C.ar      1 RES1   0.0000
     9 N       -2.2866  22.3121  14.4889   N.ar      1 RES1   0.0000
    10 C       -4.8426  24.6861  14.7597   C.3       1 RES1   0.0000
    11 C       -6.1089  24.4873  13.8988   C.3       1 RES1   0.0000
    12 C       -7.2697  24.5698  14.9159   C.3       1 RES1   0.0000
    13 C       -6.5726  24.9980  16.2240   C.3       1 RES1   0.0000
    14 O       -5.2906  24.3835  16.0814   O.3       1 RES1   0.0000
    15 C       -7.2902  24.4925  17.4938   C.3       1 RES1   0.0000
    16 O       -8.4986  25.2307  17.7129   O.3       1 RES1   0.0000
    17 P       -9.2397  25.2614  19.1317   P.3       1 RES1   0.0000
    18 O       -9.8162  23.9134  19.3989   O.2       1 RES1   0.0000
    19 O       -8.1882  25.6184  20.2834   O.3       1 RES1   0.0000
    20 O      -10.3991  26.3653  19.0906   O.3       1 RES1   0.0000
    21 P      -10.0387  27.5511  18.0774   P.3       1 RES1   0.0000
    22 O       -8.5597  27.7297  18.0505   O.2       1 RES1   0.0000
    23 O      -10.7312  28.9060  18.5721   O.3       1 RES1   0.0000
    24 O      -10.5564  27.1718  16.6099   O.3       1 RES1   0.0000
    25 P      -12.1539  27.0849  16.5359   P.3       1 RES1   0.0000
    26 O      -12.7574  28.3587  17.0190   O.2       1 RES1   0.0000
    27 O      -12.6327  26.8013  15.0352   O.3       1 RES1   0.0000
    28 O      -12.6505  25.8862  17.4717   O.3       1 RES1   0.0000
    29 O       -8.2608  25.5175  14.5018   O.3       1 RES1   0.0000
    30 O       -6.2149  25.5158  12.9077   O.3       1 RES1   0.0000
    31 N       -0.4701  21.6669  12.1935   N.pl3     1 RES1   0.0000
    32 H1      -2.7677  24.8673  10.1016   H         1 RES1   0.0000
    33 H2      -3.5326  22.7125  16.2200   H         1 RES1   0.0000
    34 H3      -4.5329  25.7424  14.7291   H         1 RES1   0.0000
    35 H4      -6.1075  23.4939  13.4233   H         1 RES1   0.0000
    36 H5      -7.7103  23.5680  15.0378   H         1 RES1   0.0000
    37 H6      -6.4635  26.0933  16.2460   H         1 RES1   0.0000
    38 H7      -7.5425  23.4273  17.3868   H         1 RES1   0.0000
    39 H8      -6.6277  24.6224  18.3625   H         1 RES1   0.0000
    40 H9      -7.6792  26.3771  20.0231   H         1 RES1   0.0000
    41 H10    -10.6861  29.5559  17.8806   H         1 RES1   0.0000
    42 H11    -13.5720  26.6614  15.0152   H         1 RES1   0.0000
    43 H12    -12.1964  25.9251  18.3052   H         1 RES1   0.0000
    44 H13     -8.9726  25.5522  15.1305   H         1 RES1   0.0000
    45 H14     -7.0643  25.4788  12.4824   H         1 RES1   0.0000
    46 H15      0.1174  21.4997  11.3642   H         1 RES1   0.0000
    47 H16     -0.3189  21.1150  13.0502   H         1 RES1   0.0000
    48 ****    -1.0960  23.1977  10.2380   Du        1 RES1   0.0000
    49 ****    -4.1313  25.2544  12.0283   Du        1 RES1   0.0000
    50 ****    -1.6997  21.5740  14.8218   Du        1 RES1   0.0000
    51 ****    -5.3662  23.3938  16.2027   Du        1 RES1   0.0000
    52 ****    -4.6525  24.7542  16.7561   Du        1 RES1   0.0000
    53 ****   -10.0245  23.6356  20.3367   Du        1 RES1   0.0000
    54 ****    -9.9948  23.2867  18.6404   Du        1 RES1   0.0000
    55 ****    -7.5768  24.8407  20.4293   Du        1 RES1   0.0000
    56 ****    -8.6784  25.8207  21.1312   Du        1 RES1   0.0000
    57 ****    -8.0255  27.6026  18.8862   Du        1 RES1   0.0000
    58 ****    -8.1014  27.9766  17.1967   Du        1 RES1   0.0000
    59 ****   -10.2544  29.2476  19.3820   Du        1 RES1   0.0000
    60 ****   -11.6885  28.7273  18.7996   Du        1 RES1   0.0000
    61 ****   -13.6635  28.6356  16.6991   Du        1 RES1   0.0000
    62 ****   -12.2563  28.9367  17.6631   Du        1 RES1   0.0000
    63 ****   -12.1689  25.9863  14.6880   Du        1 RES1   0.0000
    64 ****   -12.4024  27.5864  14.4601   Du        1 RES1   0.0000
    65 ****   -12.4548  25.0126  17.0262   Du        1 RES1   0.0000
    66 ****   -13.6353  25.9690  17.6247   Du        1 RES1   0.0000
    67 ****    -8.6227  25.2464  13.6099   Du        1 RES1   0.0000
    68 ****    -7.8410  26.4223  14.4302   Du        1 RES1   0.0000
    69 ****    -5.4974  25.3889  12.2227   Du        1 RES1   0.0000
    70 ****    -6.1038  26.4081  13.3452   Du        1 RES1   0.0000
@<TRIPOS>BOND
     1     1     2   ar
     2     2     3   ar
     3     3     4   ar
     4     4     5   ar
     5     5     6   ar
     6     1     6   ar
     7     5     7   ar
     8     7     8   ar
     9     8     9   ar
    10     4     9   ar
    11     7    10    1
    12    10    11    1
    13    11    12    1
    14    12    13    1
    15    13    14    1
    16    10    14    1
    17    13    15    1
    18    15    16    1
    19    16    17    1
    20    17    18    2
    21    17    19    1
    22    17    20    1
    23    20    21    1
    24    21    22    2
    25    21    23    1
    26    21    24    1
    27    24    25    1
    28    25    26    2
    29    25    27    1
    30    25    28    1
    31    12    29    1
    32    11    30    1
    33     3    31    1
    34     1    32    1
    35     8    33    1
    36    10    34    1
    37    11    35    1
    38    12    36    1
    39    13    37    1
    40    15    38    1
    41    15    39    1
    42    19    40    1
    43    23    41    1
    44    27    42    1
    45    28    43    1
    46    29    44    1
    47    30    45    1
    48    31    46    1
    49    31    47    1
    50     2    48    1
    51     6    49    1
    52     9    50    1
    53    14    51    1
    54    14    52    1
    55    18    53    1
    56    18    54    1
    57    19    55    1
    58    19    56    1
    59    22    57    1
    60    22    58    1
    61    23    59    1
    62    23    60    1
    63    26    61    1
    64    26    62    1
    65    27    63    1
    66    27    64    1
    67    28    65    1
    68    28    66    1
    69    29    67    1
    70    29    68    1
    71    30    69    1
    72    30    70    1
@<TRIPOS>SUBSTRUCTURE
     1 RES1        1 GROUP             0 ****  ****    0  
@<TRIPOS>MOLECULE
47.7065
    70    72     1     0     0
SMALL
NO_CHARGES
****
Generated from the CSD

@<TRIPOS>ATOM
     1 C        3.4059  22.8815   9.8620   C.ar      1 RES1   0.0000
     2 N        3.6884  21.6981   9.2701   N.ar      1 RES1   0.0000
     3 C        2.7866  20.6948   9.2260   C.ar      1 RES1   0.0000
     4 C        1.5484  20.9289   9.8172   C.ar      1 RES1   0.0000
     5 C        1.2891  22.1485  10.4220   C.ar      1 RES1   0.0000
     6 N        2.2109  23.1261  10.4410   N.ar      1 RES1   0.0000
     7 N        0.0398  22.0736  10.9113   N.ar      1 RES1   0.0000
     8 C       -0.4814  20.8642  10.6203   C.ar      1 RES1   0.0000
     9 N        0.4507  20.1608   9.9446   N.ar      1 RES1   0.0000
    10 C       -0.6082  23.0657  11.5825   C.3       1 RES1   0.0000
    11 C       -1.9176  23.5055  10.8924   C.3       1 RES1   0.0000
    12 C       -2.9091  23.7019  12.0616   C.3       1 RES1   0.0000
    13 C       -2.0237  23.5438  13.3151   C.3       1 RES1   0.0000
    14 O       -1.0469  22.6051  12.8610   O.3       1 RES1   0.0000
    15 C       -2.7884  22.9975  14.5397   C.3       1 RES1   0.0000
    16 O       -3.8364  23.8986  14.9179   O.3       1 RES1   0.0000
    17 P       -4.0873  24.3329  16.4383   P.3       1 RES1   0.0000
    18 O       -3.4416  23.3319  17.3338   O.2       1 RES1   0.0000
    19 O       -3.4366  25.7699  16.7047   O.3       1 RES1   0.0000
    20 O       -5.6643  24.3894  16.7110   O.3       1 RES1   0.0000
    21 P       -6.0925  23.3689  17.8676   P.3       1 RES1   0.0000
    22 O       -5.7591  21.9825  17.4353   O.2       1 RES1   0.0000
    23 O       -7.6674  23.4835  18.1256   O.3       1 RES1   0.0000
    24 O       -5.2878  23.7170  19.2080   O.3       1 RES1   0.0000
    25 P       -5.5782  22.6632  20.3786   P.3       1 RES1   0.0000
    26 O       -7.0124  22.7261  20.7779   O.2       1 RES1   0.0000
    27 O       -5.2207  21.1784  19.9000   O.3       1 RES1   0.0000
    28 O       -4.6695  23.0313  21.6428   O.3       1 RES1   0.0000
    29 O       -3.5341  24.9896  12.0059   O.3       1 RES1   0.0000
    30 O       -1.7237  24.7255  10.1675   O.3       1 RES1   0.0000
    31 N        3.0689  19.5132   8.6366   N.pl3     1 RES1   0.0000
    32 H1       4.1625  23.6575   9.8720   H         1 RES1   0.0000
    33 H2      -1.4739  20.5153  10.8825   H         1 RES1   0.0000
    34 H3       0.0463  23.9386  11.7314   H         1 RES1   0.0000
    35 H4      -2.2920  22.7156  10.2224   H         1 RES1   0.0000
    36 H5      -3.6614  22.8982  12.0315   H         1 RES1   0.0000
    37 H6      -1.5400  24.5039  13.5523   H         1 RES1   0.0000
    38 H7      -3.2330  22.0198  14.3026   H         1 RES1   0.0000
    39 H8      -2.0913  22.8835  15.3832   H         1 RES1   0.0000
    40 H9      -3.7810  26.3944  16.0773   H         1 RES1   0.0000
    41 H10     -8.0326  22.6150  18.2478   H         1 RES1   0.0000
    42 H11     -4.3046  21.1284  19.6538   H         1 RES1   0.0000
    43 H12     -4.0637  23.7241  21.4074   H         1 RES1   0.0000
    44 H13     -3.7873  25.2756  12.8761   H         1 RES1   0.0000
    45 H14     -1.5502  25.4424  10.7672   H         1 RES1   0.0000
    46 H15      3.9922  19.3616   8.2062   H         1 RES1   0.0000
    47 H16      2.3633  18.7627   8.6172   H         1 RES1   0.0000
    48 ****     4.5880  21.5634   8.8548   Du        1 RES1   0.0000
    49 ****     2.0176  24.0081  10.8709   Du        1 RES1   0.0000
    50 ****     0.3442  19.2289   9.5979   Du        1 RES1   0.0000
    51 ****    -1.4534  21.6951  12.7798   Du        1 RES1   0.0000
    52 ****    -0.2775  22.5708  13.4988   Du        1 RES1   0.0000
    53 ****    -3.8581  22.4315  17.4597   Du        1 RES1   0.0000
    54 ****    -2.5919  23.5605  17.8089   Du        1 RES1   0.0000
    55 ****    -2.4434  25.7099  16.6046   Du        1 RES1   0.0000
    56 ****    -3.6606  26.0706  17.6317   Du        1 RES1   0.0000
    57 ****    -6.4911  21.3374  17.2162   Du        1 RES1   0.0000
    58 ****    -4.8033  21.6972  17.3642   Du        1 RES1   0.0000
    59 ****    -8.1031  23.9206  17.3388   Du        1 RES1   0.0000
    60 ****    -7.8317  24.0324  18.9452   Du        1 RES1   0.0000
    61 ****    -7.5639  21.8922  20.7940   Du        1 RES1   0.0000
    62 ****    -7.4232  23.6023  21.0299   Du        1 RES1   0.0000
    63 ****    -5.7888  20.9383  19.1129   Du        1 RES1   0.0000
    64 ****    -5.3984  20.5378  20.6471   Du        1 RES1   0.0000
    65 ****    -4.1558  22.2230  21.9305   Du        1 RES1   0.0000
    66 ****    -5.2531  23.3400  22.3939   Du        1 RES1   0.0000
    67 ****    -4.3483  24.9353  11.4279   Du        1 RES1   0.0000
    68 ****    -2.8923  25.6502  11.6164   Du        1 RES1   0.0000
    69 ****    -2.5479  24.9297   9.6393   Du        1 RES1   0.0000
    70 ****    -0.9473  24.6201   9.5462   Du        1 RES1   0.0000
@<TRIPOS>BOND
     1     1     2   ar
     2     2     3   ar
     3     3     4   ar
     4     4     5   ar
     5     5     6   ar
     6     1     6   ar
     7     5     7   ar
     8     7     8   ar
     9     8     9   ar
    10     4     9   ar
    11     7    10    1
    12    10    11    1
    13    11    12    1
    14    12    13    1
    15    13    14    1
    16    10    14    1
    17    13    15    1
    18    15    16    1
    19    16    17    1
    20    17    18    2
    21    17    19    1
    22    17    20    1
    23    20    21    1
    24    21    22    2
    25    21    23    1
    26    21    24    1
    27    24    25    1
    28    25    26    2
    29    25    27    1
    30    25    28    1
    31    12    29    1
    32    11    30    1
    33     3    31    1
    34     1    32    1
    35     8    33    1
    36    10    34    1
    37    11    35    1
    38    12    36    1
    39    13    37    1
    40    15    38    1
    41    15    39    1
    42    19    40    1
    43    23    41    1
    44    27    42    1
    45    28    43    1
    46    29    44    1
    47    30    45    1
    48    31    46    1
    49    31    47    1
    50     2    48    1
    51     6    49    1
    52     9    50    1
    53    14    51    1
    54    14    52    1
    55    18    53    1
    56    18    54    1
    57    19    55    1
    58    19    56    1
    59    22    57    1
    60    22    58    1
    61    23    59    1
    62    23    60    1
    63    26    61    1
    64    26    62    1
    65    27    63    1
    66    27    64    1
    67    28    65    1
    68    28    66    1
    69    29    67    1
    70    29    68    1
    71    30    69    1
    72    30    70    1
@<TRIPOS>SUBSTRUCTURE
     1 RES1        1 GROUP             0 ****  ****    0  
@<TRIPOS>MOLECULE
47.0951
    70    72     1     0     0
SMALL
NO_CHARGES
****
Generated from the CSD

@<TRIPOS>ATOM
     1 C       -3.2030  23.8006  11.2765   C.ar      1 RES1   0.0000
     2 N       -1.9961  24.4071  11.1985   N.ar      1 RES1   0.0000
     3 C       -1.2942  24.7333  12.3042   C.ar      1 RES1   0.0000
     4 C       -1.8657  24.4184  13.5337   C.ar      1 RES1   0.0000
     5 C       -3.1064  23.8030  13.5835   C.ar      1 RES1   0.0000
     6 N       -3.7731  23.4884  12.4600   N.ar      1 RES1   0.0000
     7 N       -3.4010  23.6433  14.8849   N.ar      1 RES1   0.0000
     8 C       -2.3872  24.1234  15.6338   C.ar      1 RES1   0.0000
     9 N       -1.4414  24.5996  14.7979   N.ar      1 RES1   0.0000
    10 C       -4.5362  23.0729  15.3752   C.3       1 RES1   0.0000
    11 C       -4.5439  22.9722  16.9160   C.3       1 RES1   0.0000
    12 C       -5.9912  23.3464  17.3083   C.3       1 RES1   0.0000
    13 C       -6.7202  23.4369  15.9516   C.3       1 RES1   0.0000
    14 O       -5.6728  23.8897  15.0918   O.3       1 RES1   0.0000
    15 C       -7.9009  24.4313  15.9562   C.3       1 RES1   0.0000
    16 O       -7.6064  25.5536  16.7971   O.3       1 RES1   0.0000
    17 P       -8.5376  26.8549  16.8481   P.3       1 RES1   0.0000
    18 O       -7.7432  27.9896  17.3977   O.2       1 RES1   0.0000
    19 O       -9.0287  27.2266  15.3716   O.3       1 RES1   0.0000
    20 O       -9.8021  26.5549  17.7839   O.3       1 RES1   0.0000
    21 P       -9.9791  27.6848  18.9039   P.3       1 RES1   0.0000
    22 O      -10.1779  29.0008  18.2342   O.2       1 RES1   0.0000
    23 O       -8.6662  27.7431  19.8166   O.3       1 RES1   0.0000
    24 O      -11.2605  27.3456  19.8030   O.3       1 RES1   0.0000
    25 P      -12.5934  27.2026  18.9266   P.3       1 RES1   0.0000
    26 O      -13.6024  28.2080  19.3641   O.2       1 RES1   0.0000
    27 O      -12.2699  27.4104  17.3730   O.3       1 RES1   0.0000
    28 O      -13.1958  25.7356  19.1371   O.3       1 RES1   0.0000
    29 O       -6.5731  22.3562  18.1644   O.3       1 RES1   0.0000
    30 O       -4.2202  21.6426  17.3389   O.3       1 RES1   0.0000
    31 N       -0.0903  25.3399  12.2266   N.pl3     1 RES1   0.0000
    32 H1      -3.7289  23.5579  10.3604   H         1 RES1   0.0000
    33 H2      -2.3383  24.1279  16.7168   H         1 RES1   0.0000
    34 H3      -4.7032  22.0773  14.9356   H         1 RES1   0.0000
    35 H4      -3.8441  23.6978  17.3596   H         1 RES1   0.0000
    36 H5      -5.9856  24.3337  17.7963   H         1 RES1   0.0000
    37 H6      -7.0539  22.4348  15.6412   H         1 RES1   0.0000
    38 H7      -8.0922  24.7959  14.9363   H         1 RES1   0.0000
    39 H8      -8.8015  23.9255  16.3351   H         1 RES1   0.0000
    40 H9      -9.8055  26.7224  15.1601   H         1 RES1   0.0000
    41 H10     -8.0367  27.1021  19.5077   H         1 RES1   0.0000
    42 H11    -11.3833  27.1260  17.1851   H         1 RES1   0.0000
    43 H12    -13.9048  25.7711  19.7684   H         1 RES1   0.0000
    44 H13     -6.8700  21.6094  17.6572   H         1 RES1   0.0000
    45 H14     -3.2868  21.5658  17.5023   H         1 RES1   0.0000
    46 H15      0.3132  25.5645  11.3059   H         1 RES1   0.0000
    47 H16      0.4251  25.5794  13.0859   H         1 RES1   0.0000
    48 ****    -1.6144  24.6191  10.2988   Du        1 RES1   0.0000
    49 ****    -4.6644  23.0367  12.4992   Du        1 RES1   0.0000
    50 ****    -0.5740  25.0158  15.0708   Du        1 RES1   0.0000
    51 ****    -5.4636  24.8498  15.2776   Du        1 RES1   0.0000
    52 ****    -5.9425  23.7866  14.1344   Du        1 RES1   0.0000
    53 ****    -6.9975  28.3842  16.8609   Du        1 RES1   0.0000
    54 ****    -7.9560  28.3566  18.3033   Du        1 RES1   0.0000
    55 ****    -8.3043  27.0138  14.7159   Du        1 RES1   0.0000
    56 ****    -9.2424  28.2025  15.3271   Du        1 RES1   0.0000
    57 ****    -9.4710  29.3651  17.6278   Du        1 RES1   0.0000
    58 ****   -11.0181  29.5198  18.3910   Du        1 RES1   0.0000
    59 ****    -8.9103  27.5402  20.7649   Du        1 RES1   0.0000
    60 ****    -8.2641  28.6572  19.7642   Du        1 RES1   0.0000
    61 ****   -13.7989  29.0022  18.7890   Du        1 RES1   0.0000
    62 ****   -14.0830  28.0886  20.2329   Du        1 RES1   0.0000
    63 ****   -12.3631  28.3789  17.1419   Du        1 RES1   0.0000
    64 ****   -12.9127  26.8740  16.8262   Du        1 RES1   0.0000
    65 ****   -12.4786  25.1264  19.4755   Du        1 RES1   0.0000
    66 ****   -13.5429  25.3898  18.2653   Du        1 RES1   0.0000
    67 ****    -7.3520  22.7561  18.6477   Du        1 RES1   0.0000
    68 ****    -5.8895  22.0523  18.8279   Du        1 RES1   0.0000
    69 ****    -4.4840  20.9957  16.6234   Du        1 RES1   0.0000
    70 ****    -4.7204  21.4328  18.1790   Du        1 RES1   0.0000
@<TRIPOS>BOND
     1     1     2   ar
     2     2     3   ar
     3     3     4   ar
     4     4     5   ar
     5     5     6   ar
     6     1     6   ar
     7     5     7   ar
     8     7     8   ar
     9     8     9   ar
    10     4     9   ar
    11     7    10    1
    12    10    11    1
    13    11    12    1
    14    12    13    1
    15    13    14    1
    16    10    14    1
    17    13    15    1
    18    15    16    1
    19    16    17    1
    20    17    18    2
    21    17    19    1
    22    17    20    1
    23    20    21    1
    24    21    22    2
    25    21    23    1
    26    21    24    1
    27    24    25    1
    28    25    26    2
    29    25    27    1
    30    25    28    1
    31    12    29    1
    32    11    30    1
    33     3    31    1
    34     1    32    1
    35     8    33    1
    36    10    34    1
    37    11    35    1
    38    12    36    1
    39    13    37    1
    40    15    38    1
    41    15    39    1
    42    19    40    1
    43    23    41    1
    44    27    42    1
    45    28    43    1
    46    29    44    1
    47    30    45    1
    48    31    46    1
    49    31    47    1
    50     2    48    1
    51     6    49    1
    52     9    50    1
    53    14    51    1
    54    14    52    1
    55    18    53    1
    56    18    54    1
    57    19    55    1
    58    19    56    1
    59    22    57    1
    60    22    58    1
    61    23    59    1
    62    23    60    1
    63    26    61    1
    64    26    62    1
    65    27    63    1
    66    27    64    1
    67    28    65    1
    68    28    66    1
    69    29    67    1
    70    29    68    1
    71    30    69    1
    72    30    70    1
@<TRIPOS>SUBSTRUCTURE
     1 RES1        1 GROUP             0 ****  ****    0  
@<TRIPOS>MOLECULE
46.7758
    70    72     1     0     0
SMALL
NO_CHARGES
****
Generated from the CSD

@<TRIPOS>ATOM
     1 C        3.2070  23.0749  12.0840   C.ar      1 RES1   0.0000
     2 N        3.6191  21.9509  11.4535   N.ar      1 RES1   0.0000
     3 C        2.7410  21.0721  10.9258   C.ar      1 RES1   0.0000
     4 C        1.3880  21.3712  11.0574   C.ar      1 RES1   0.0000
     5 C        0.9948  22.5265  11.7141   C.ar      1 RES1   0.0000
     6 N        1.8991  23.3809  12.2218   N.ar      1 RES1   0.0000
     7 N       -0.3490  22.5353  11.6987   N.ar      1 RES1   0.0000
     8 C       -0.7948  21.4406  11.0492   C.ar      1 RES1   0.0000
     9 N        0.2786  20.7251  10.6539   N.ar      1 RES1   0.0000
    10 C       -1.1403  23.5030  12.2390   C.3       1 RES1   0.0000
    11 C       -2.5749  23.4978  11.6678   C.3       1 RES1   0.0000
    12 C       -3.4699  23.7531  12.9016   C.3       1 RES1   0.0000
    13 C       -2.4574  24.0703  14.0217   C.3       1 RES1   0.0000
    14 O       -1.3391  23.2700  13.6338   O.3       1 RES1   0.0000
    15 C       -2.9575  23.6774  15.4282   C.3       1 RES1   0.0000
    16 O       -4.2032  24.3247  15.7152   O.3       1 RES1   0.0000
    17 P       -4.6879  24.6278  17.2106   P.3       1 RES1   0.0000
    18 O       -4.0384  23.6517  18.1305   O.2       1 RES1   0.0000
    19 O       -4.2547  26.1098  17.6295   O.3       1 RES1   0.0000
    20 O       -6.2814  24.4850  17.2813   O.3       1 RES1   0.0000
    21 P       -6.9458  24.6496  15.8342   P.3       1 RES1   0.0000
    22 O       -6.5008  23.5218  14.9681   O.2       1 RES1   0.0000
    23 O       -6.4795  26.0364  15.1865   O.3       1 RES1   0.0000
    24 O       -8.5409  24.6160  15.9750   O.3       1 RES1   0.0000
    25 P       -9.1419  26.0426  16.3856   P.3       1 RES1   0.0000
    26 O      -10.2066  25.8712  17.4139   O.2       1 RES1   0.0000
    27 O       -7.9903  26.9935  16.9612   O.3       1 RES1   0.0000
    28 O       -9.7778  26.7288  15.0878   O.3       1 RES1   0.0000
    29 O       -4.3755  24.8395  12.6744   O.3       1 RES1   0.0000
    30 O       -2.7348  24.5314  10.6894   O.3       1 RES1   0.0000
    31 N        3.1521  19.9496  10.2978   N.pl3     1 RES1   0.0000
    32 H1       3.9499  23.7508  12.4914   H         1 RES1   0.0000
    33 H2      -1.8321  21.1784  10.8746   H         1 RES1   0.0000
    34 H3      -0.6920  24.5006  12.1119   H         1 RES1   0.0000
    35 H4      -2.8201  22.5159  11.2333   H         1 RES1   0.0000
    36 H5      -4.0176  22.8289  13.1436   H         1 RES1   0.0000
    37 H6      -2.1860  25.1366  13.9867   H         1 RES1   0.0000
    38 H7      -3.1043  22.5889  15.4870   H         1 RES1   0.0000
    39 H8      -2.2128  23.9834  16.1781   H         1 RES1   0.0000
    40 H9      -3.8547  26.0910  18.4910   H         1 RES1   0.0000
    41 H10     -5.5670  26.1943  15.3984   H         1 RES1   0.0000
    42 H11     -8.3760  27.7122  17.4480   H         1 RES1   0.0000
    43 H12    -10.7208  26.7848  15.1882   H         1 RES1   0.0000
    44 H13     -3.9219  25.5749  12.2787   H         1 RES1   0.0000
    45 H14     -3.3934  25.1557  10.9726   H         1 RES1   0.0000
    46 H15      4.1585  19.7479  10.2128   H         1 RES1   0.0000
    47 H16      2.4615  19.2941   9.9043   H         1 RES1   0.0000
    48 ****     4.5989  21.7667  11.3765   Du        1 RES1   0.0000
    49 ****     1.6122  24.2179  12.6877   Du        1 RES1   0.0000
    50 ****     0.2540  19.8630  10.1479   Du        1 RES1   0.0000
    51 ****    -1.5324  22.3028  13.7987   Du        1 RES1   0.0000
    52 ****    -0.5255  23.5398  14.1488   Du        1 RES1   0.0000
    53 ****    -4.5986  23.0157  18.6612   Du        1 RES1   0.0000
    54 ****    -3.0423  23.6327  18.2171   Du        1 RES1   0.0000
    55 ****    -5.0617  26.6999  17.6495   Du        1 RES1   0.0000
    56 ****    -3.5979  26.4656  16.9647   Du        1 RES1   0.0000
    57 ****    -5.6119  23.5624  14.5119   Du        1 RES1   0.0000
    58 ****    -7.0911  22.7243  14.8432   Du        1 RES1   0.0000
    59 ****    -7.0399  26.7798  15.5516   Du        1 RES1   0.0000
    60 ****    -6.5885  25.9937  14.1934   Du        1 RES1   0.0000
    61 ****   -11.1557  25.7303  17.1323   Du        1 RES1   0.0000
    62 ****    -9.9720  25.8971  18.3857   Du        1 RES1   0.0000
    63 ****    -7.4521  27.3589  16.2017   Du        1 RES1   0.0000
    64 ****    -7.3959  26.4645  17.5668   Du        1 RES1   0.0000
    65 ****    -9.5607  26.1800  14.2806   Du        1 RES1   0.0000
    66 ****    -9.3993  27.6479  14.9777   Du        1 RES1   0.0000
    67 ****    -4.7694  25.1273  13.5474   Du        1 RES1   0.0000
    68 ****    -5.1062  24.5362  12.0628   Du        1 RES1   0.0000
    69 ****    -3.0190  24.1231   9.8219   Du        1 RES1   0.0000
    70 ****    -1.8631  25.0054  10.5649   Du        1 RES1   0.0000
@<TRIPOS>BOND
     1     1     2   ar
     2     2     3   ar
     3     3     4   ar
     4     4     5   ar
     5     5     6   ar
     6     1     6   ar
     7     5     7   ar
     8     7     8   ar
     9     8     9   ar
    10     4     9   ar
    11     7    10    1
    12    10    11    1
    13    11    12    1
    14    12    13    1
    15    13    14    1
    16    10    14    1
    17    13    15    1
    18    15    16    1
    19    16    17    1
    20    17    18    2
    21    17    19    1
    22    17    20    1
    23    20    21    1
    24    21    22    2
    25    21    23    1
    26    21    24    1
    27    24    25    1
    28    25    26    2
    29    25    27    1
    30    25    28    1
    31    12    29    1
    32    11    30    1
    33     3    31    1
    34     1    32    1
    35     8    33    1
    36    10    34    1
    37    11    35    1
    38    12    36    1
    39    13    37    1
    40    15    38    1
    41    15    39    1
    42    19    40    1
    43    23    41    1
    44    27    42    1
    45    28    43    1
    46    29    44    1
    47    30    45    1
    48    31    46    1
    49    31    47    1
    50     2    48    1
    51     6    49    1
    52     9    50    1
    53    14    51    1
    54    14    52    1
    55    18    53    1
    56    18    54    1
    57    19    55    1
    58    19    56    1
    59    22    57    1
    60    22    58    1
    61    23    59    1
    62    23    60    1
    63    26    61    1
    64    26    62    1
    65    27    63    1
    66    27    64    1
    67    28    65    1
    68    28    66    1
    69    29    67    1
    70    29    68    1
    71    30    69    1
    72    30    70    1
@<TRIPOS>SUBSTRUCTURE
     1 RES1        1 GROUP             0 ****  ****    0  
@<TRIPOS>MOLECULE
45.3594
    70    72     1     0     0
SMALL
NO_CHARGES
****
Generated from the CSD

@<TRIPOS>ATOM
     1 C        1.0113  24.9372  12.3656   C.ar      1 RES1   0.0000
     2 N        0.9199  24.8599  11.0178   N.ar      1 RES1   0.0000
     3 C       -0.2373  24.5350  10.4036   C.ar      1 RES1   0.0000
     4 C       -1.3377  24.2819  11.2175   C.ar      1 RES1   0.0000
     5 C       -1.2131  24.3622  12.5954   C.ar      1 RES1   0.0000
     6 N       -0.0451  24.6944  13.1707   N.ar      1 RES1   0.0000
     7 N       -2.4173  24.0533  13.1058   N.ar      1 RES1   0.0000
     8 C       -3.2771  23.7998  12.0982   C.ar      1 RES1   0.0000
     9 N       -2.6089  23.9426  10.9348   N.ar      1 RES1   0.0000
    10 C       -2.7293  24.0160  14.4309   C.3       1 RES1   0.0000
    11 C       -2.4645  25.3559  15.1511   C.3       1 RES1   0.0000
    12 C       -3.6779  25.5203  16.0940   C.3       1 RES1   0.0000
    13 C       -4.4193  24.1734  15.9651   C.3       1 RES1   0.0000
    14 O       -4.1314  23.8148  14.6123   O.3       1 RES1   0.0000
    15 C       -5.9413  24.2880  16.1951   C.3       1 RES1   0.0000
    16 O       -6.2739  25.5850  16.7054   O.3       1 RES1   0.0000
    17 P       -6.2743  25.9163  18.2718   P.3       1 RES1   0.0000
    18 O       -5.9093  24.6813  19.0215   O.2       1 RES1   0.0000
    19 O       -5.1956  27.0559  18.5837   O.3       1 RES1   0.0000
    20 O       -7.7346  26.4164  18.6986   O.3       1 RES1   0.0000
    21 P       -8.2820  25.6032  19.9641   P.3       1 RES1   0.0000
    22 O       -8.3635  24.1581  19.6103   O.2       1 RES1   0.0000
    23 O       -9.7376  26.1400  20.3556   O.3       1 RES1   0.0000
    24 O       -7.2748  25.7944  21.1947   O.3       1 RES1   0.0000
    25 P       -7.1861  27.3207  21.6719   P.3       1 RES1   0.0000
    26 O       -6.5015  28.1413  20.6335   O.2       1 RES1   0.0000
    27 O       -8.6488  27.9114  21.9421   O.3       1 RES1   0.0000
    28 O       -6.3422  27.3899  23.0293   O.3       1 RES1   0.0000
    29 O       -3.2622  25.7764  17.4407   O.3       1 RES1   0.0000
    30 O       -1.2385  25.3009  15.8897   O.3       1 RES1   0.0000
    31 N       -0.3283  24.4564   9.0587   N.pl3     1 RES1   0.0000
    32 H1       1.9622  25.2022  12.8130   H         1 RES1   0.0000
    33 H2      -4.3216  23.5280  12.2015   H         1 RES1   0.0000
    34 H3      -2.1907  23.2041  14.9439   H         1 RES1   0.0000
    35 H4      -2.4428  26.1898  14.4319   H         1 RES1   0.0000
    36 H5      -4.3155  26.3355  15.7177   H         1 RES1   0.0000
    37 H6      -3.9742  23.4367  16.6516   H         1 RES1   0.0000
    38 H7      -6.4796  24.1333  15.2484   H         1 RES1   0.0000
    39 H8      -6.2584  23.5245  16.9211   H         1 RES1   0.0000
    40 H9      -4.3929  26.6549  18.8957   H         1 RES1   0.0000
    41 H10     -9.7409  26.4118  21.2659   H         1 RES1   0.0000
    42 H11     -9.1051  28.0375  21.1186   H         1 RES1   0.0000
    43 H12     -5.6373  28.0194  22.9331   H         1 RES1   0.0000
    44 H13     -3.5937  25.1049  18.0258   H         1 RES1   0.0000
    45 H14     -0.9619  24.3987  16.0044   H         1 RES1   0.0000
    46 H15      0.4993  24.6469   8.4759   H         1 RES1   0.0000
    47 H16     -1.2232  24.2053   8.6142   H         1 RES1   0.0000
    48 ****     1.7301  25.0482  10.4628   Du        1 RES1   0.0000
    49 ****     0.0393  24.7597  14.1650   Du        1 RES1   0.0000
    50 ****    -2.9924  23.8179  10.0198   Du        1 RES1   0.0000
    51 ****    -4.6483  24.3955  13.9833   Du        1 RES1   0.0000
    52 ****    -4.3669  22.8564  14.4511   Du        1 RES1   0.0000
    53 ****    -6.6105  24.1761  19.5246   Du        1 RES1   0.0000
    54 ****    -4.9631  24.3576  19.0214   Du        1 RES1   0.0000
    55 ****    -5.5548  27.6720  19.2846   Du        1 RES1   0.0000
    56 ****    -5.0071  27.5739  17.7494   Du        1 RES1   0.0000
    57 ****    -9.1725  23.8028  19.1420   Du        1 RES1   0.0000
    58 ****    -7.6092  23.5435  19.8412   Du        1 RES1   0.0000
    59 ****   -10.4086  25.4104  20.2233   Du        1 RES1   0.0000
    60 ****    -9.9730  26.9189  19.7744   Du        1 RES1   0.0000
    61 ****    -6.9032  28.2310  19.7221   Du        1 RES1   0.0000
    62 ****    -5.6403  28.6022  20.8479   Du        1 RES1   0.0000
    63 ****    -8.5695  28.7891  22.4147   Du        1 RES1   0.0000
    64 ****    -9.1644  27.2715  22.5119   Du        1 RES1   0.0000
    65 ****    -5.9587  26.4883  23.2294   Du        1 RES1   0.0000
    66 ****    -6.9404  27.6716  23.7795   Du        1 RES1   0.0000
    67 ****    -3.6136  26.6670  17.7296   Du        1 RES1   0.0000
    68 ****    -2.2630  25.7834  17.4808   Du        1 RES1   0.0000
    69 ****    -1.3751  25.7205  16.7870   Du        1 RES1   0.0000
    70 ****    -0.5308  25.8020  15.3916   Du        1 RES1   0.0000
@<TRIPOS>BOND
     1     1     2   ar
     2     2     3   ar
     3     3     4   ar
     4     4     5   ar
     5     5     6   ar
     6     1     6   ar
     7     5     7   ar
     8     7     8   ar
     9     8     9   ar
    10     4     9   ar
    11     7    10    1
    12    10    11    1
    13    11    12    1
    14    12    13    1
    15    13    14    1
    16    10    14    1
    17    13    15    1
    18    15    16    1
    19    16    17    1
    20    17    18    2
    21    17    19    1
    22    17    20    1
    23    20    21    1
    24    21    22    2
    25    21    23    1
    26    21    24    1
    27    24    25    1
    28    25    26    2
    29    25    27    1
    30    25    28    1
    31    12    29    1
    32    11    30    1
    33     3    31    1
    34     1    32    1
    35     8    33    1
    36    10    34    1
    37    11    35    1
    38    12    36    1
    39    13    37    1
    40    15    38    1
    41    15    39    1
    42    19    40    1
    43    23    41    1
    44    27    42    1
    45    28    43    1
    46    29    44    1
    47    30    45    1
    48    31    46    1
    49    31    47    1
    50     2    48    1
    51     6    49    1
    52     9    50    1
    53    14    51    1
    54    14    52    1
    55    18    53    1
    56    18    54    1
    57    19    55    1
    58    19    56    1
    59    22    57    1
    60    22    58    1
    61    23    59    1
    62    23    60    1
    63    26    61    1
    64    26    62    1
    65    27    63    1
    66    27    64    1
    67    28    65    1
    68    28    66    1
    69    29    67    1
    70    29    68    1
    71    30    69    1
    72    30    70    1
@<TRIPOS>SUBSTRUCTURE
     1 RES1        1 GROUP             0 ****  ****    0  
@<TRIPOS>MOLECULE
45.0273
    70    72     1     0     0
SMALL
NO_CHARGES
****
Generated from the CSD

@<TRIPOS>ATOM
     1 C      -11.3208  26.9227  23.7514   C.ar      1 RES1   0.0000
     2 N      -10.3794  27.4784  24.5487   N.ar      1 RES1   0.0000
     3 C       -9.1357  27.7447  24.0970   C.ar      1 RES1   0.0000
     4 C       -8.8603  27.4229  22.7711   C.ar      1 RES1   0.0000
     5 C       -9.8422  26.8485  21.9795   C.ar      1 RES1   0.0000
     6 N      -11.0715  26.6032  22.4634   N.ar      1 RES1   0.0000
     7 N       -9.2859  26.6382  20.7744   N.ar      1 RES1   0.0000
     8 C       -8.0088  27.0714  20.7910   C.ar      1 RES1   0.0000
     9 N       -7.7495  27.5559  22.0232   N.ar      1 RES1   0.0000
    10 C       -9.9136  26.0888  19.6979   C.3       1 RES1   0.0000
    11 C      -11.0798  26.9540  19.1731   C.3       1 RES1   0.0000
    12 C      -10.9495  26.8651  17.6357   C.3       1 RES1   0.0000
    13 C       -9.8450  25.8079  17.4284   C.3       1 RES1   0.0000
    14 O       -9.0268  26.0168  18.5809   O.3       1 RES1   0.0000
    15 C       -9.0355  26.0148  16.1304   C.3       1 RES1   0.0000
    16 O       -7.9735  25.0567  16.0451   O.3       1 RES1   0.0000
    17 P       -7.2602  24.6878  14.6601   P.3       1 RES1   0.0000
    18 O       -8.3084  24.3297  13.6633   O.2       1 RES1   0.0000
    19 O       -6.4367  25.9499  14.1230   O.3       1 RES1   0.0000
    20 O       -6.2702  23.4514  14.8965   O.3       1 RES1   0.0000
    21 P       -5.2764  23.7267  16.1208   P.3       1 RES1   0.0000
    22 O       -4.9241  25.1743  16.1399   O.2       1 RES1   0.0000
    23 O       -3.9467  22.8560  15.9363   O.3       1 RES1   0.0000
    24 O       -6.0039  23.3372  17.4936   O.3       1 RES1   0.0000
    25 P       -5.1571  22.2798  18.3479   P.3       1 RES1   0.0000
    26 O       -4.8281  21.0927  17.5095   O.2       1 RES1   0.0000
    27 O       -3.8050  22.9458  18.8864   O.3       1 RES1   0.0000
    28 O       -6.0335  21.8059  19.5995   O.3       1 RES1   0.0000
    29 O      -12.1864  26.4741  17.0281   O.3       1 RES1   0.0000
    30 O      -12.3378  26.4325  19.6170   O.3       1 RES1   0.0000
    31 N       -8.1956  28.2980  24.8929   N.pl3     1 RES1   0.0000
    32 H1     -12.3058  26.7277  24.1594   H         1 RES1   0.0000
    33 H2      -7.3107  27.0371  19.9621   H         1 RES1   0.0000
    34 H3     -10.2747  25.0733  19.9233   H         1 RES1   0.0000
    35 H4     -10.9644  28.0021  19.4913   H         1 RES1   0.0000
    36 H5     -10.6119  27.8392  17.2484   H         1 RES1   0.0000
    37 H6     -10.2853  24.7993  17.4584   H         1 RES1   0.0000
    38 H7      -9.6892  25.8950  15.2539   H         1 RES1   0.0000
    39 H8      -8.6063  27.0278  16.1265   H         1 RES1   0.0000
    40 H9      -5.8270  26.2380  14.7921   H         1 RES1   0.0000
    41 H10     -3.9472  22.4554  15.0748   H         1 RES1   0.0000
    42 H11     -4.0040  23.7386  19.3702   H         1 RES1   0.0000
    43 H12     -6.8037  21.3433  19.2908   H         1 RES1   0.0000
    44 H13    -12.2539  26.8301  16.1496   H         1 RES1   0.0000
    45 H14    -13.0384  27.0423  19.4144   H         1 RES1   0.0000
    46 H15     -8.4212  28.5271  25.8714   H         1 RES1   0.0000
    47 H16     -7.2530  28.4905  24.5241   H         1 RES1   0.0000
    48 ****   -10.6109  27.6973  25.4966   Du        1 RES1   0.0000
    49 ****   -11.7803  26.1964  21.8871   Du        1 RES1   0.0000
    50 ****    -6.8810  27.9466  22.3283   Du        1 RES1   0.0000
    51 ****    -8.5141  26.8706  18.4908   Du        1 RES1   0.0000
    52 ****    -8.3887  25.2553  18.6946   Du        1 RES1   0.0000
    53 ****    -9.2642  24.5684  13.8351   Du        1 RES1   0.0000
    54 ****    -8.0561  23.8507  12.8225   Du        1 RES1   0.0000
    55 ****    -7.0696  26.6932  13.9063   Du        1 RES1   0.0000
    56 ****    -5.9309  25.6921  13.2997   Du        1 RES1   0.0000
    57 ****    -4.2274  25.5276  15.5156   Du        1 RES1   0.0000
    58 ****    -5.3844  25.7925  16.7771   Du        1 RES1   0.0000
    59 ****    -3.9162  22.1420  16.6358   Du        1 RES1   0.0000
    60 ****    -3.1456  23.4473  16.0285   Du        1 RES1   0.0000
    61 ****    -5.5539  20.6103  17.0191   Du        1 RES1   0.0000
    62 ****    -3.8815  20.7784  17.4373   Du        1 RES1   0.0000
    63 ****    -3.2147  23.1703  18.1110   Du        1 RES1   0.0000
    64 ****    -3.3343  22.3001  19.4876   Du        1 RES1   0.0000
    65 ****    -6.3155  22.6050  20.1305   Du        1 RES1   0.0000
    66 ****    -5.4886  21.1976  20.1766   Du        1 RES1   0.0000
    67 ****   -12.9466  26.8157  17.5807   Du        1 RES1   0.0000
    68 ****   -12.2294  25.4761  16.9827   Du        1 RES1   0.0000
    69 ****   -12.3037  26.2862  20.6057   Du        1 RES1   0.0000
    70 ****   -12.5147  25.5623  19.1572   Du        1 RES1   0.0000
@<TRIPOS>BOND
     1     1     2   ar
     2     2     3   ar
     3     3     4   ar
     4     4     5   ar
     5     5     6   ar
     6     1     6   ar
     7     5     7   ar
     8     7     8   ar
     9     8     9   ar
    10     4     9   ar
    11     7    10    1
    12    10    11    1
    13    11    12    1
    14    12    13    1
    15    13    14    1
    16    10    14    1
    17    13    15    1
    18    15    16    1
    19    16    17    1
    20    17    18    2
    21    17    19    1
    22    17    20    1
    23    20    21    1
    24    21    22    2
    25    21    23    1
    26    21    24    1
    27    24    25    1
    28    25    26    2
    29    25    27    1
    30    25    28    1
    31    12    29    1
    32    11    30    1
    33     3    31    1
    34     1    32    1
    35     8    33    1
    36    10    34    1
    37    11    35    1
    38    12    36    1
    39    13    37    1
    40    15    38    1
    41    15    39    1
    42    19    40    1
    43    23    41    1
    44    27    42    1
    45    28    43    1
    46    29    44    1
    47    30    45    1
    48    31    46    1
    49    31    47    1
    50     2    48    1
    51     6    49    1
    52     9    50    1
    53    14    51    1
    54    14    52    1
    55    18    53    1
    56    18    54    1
    57    19    55    1
    58    19    56    1
    59    22    57    1
    60    22    58    1
    61    23    59    1
    62    23    60    1
    63    26    61    1
    64    26    62    1
    65    27    63    1
    66    27    64    1
    67    28    65    1
    68    28    66    1
    69    29    67    1
    70    29    68    1
    71    30    69    1
    72    30    70    1
@<TRIPOS>SUBSTRUCTURE
     1 RES1        1 GROUP             0 ****  ****    0  
@<TRIPOS>MOLECULE
43.9187
    70    72     1     0     0
SMALL
NO_CHARGES
****
Generated from the CSD

@<TRIPOS>ATOM
     1 C       -2.4624  24.9739  14.4569   C.ar      1 RES1   0.0000
     2 N       -1.9122  23.7475  14.3026   N.ar      1 RES1   0.0000
     3 C       -2.5504  22.6286  14.7058   C.ar      1 RES1   0.0000
     4 C       -3.8038  22.7892  15.2895   C.ar      1 RES1   0.0000
     5 C       -4.3400  24.0581  15.4407   C.ar      1 RES1   0.0000
     6 N       -3.6765  25.1488  15.0214   N.ar      1 RES1   0.0000
     7 N       -5.5317  23.8995  16.0411   N.ar      1 RES1   0.0000
     8 C       -5.7534  22.5860  16.2523   C.ar      1 RES1   0.0000
     9 N       -4.6867  21.9037  15.7867   N.ar      1 RES1   0.0000
    10 C       -6.3909  24.9029  16.3722   C.3       1 RES1   0.0000
    11 C       -7.4227  25.2040  15.2637   C.3       1 RES1   0.0000
    12 C       -8.7424  25.4364  16.0338   C.3       1 RES1   0.0000
    13 C       -8.3014  25.4365  17.5123   C.3       1 RES1   0.0000
    14 O       -7.2021  24.5242  17.4848   O.3       1 RES1   0.0000
    15 C       -9.4013  24.9484  18.4792   C.3       1 RES1   0.0000
    16 O      -10.5492  25.8026  18.4032   O.3       1 RES1   0.0000
    17 P      -11.7137  25.7743  19.5015   P.3       1 RES1   0.0000
    18 O      -12.9484  25.2233  18.8748   O.2       1 RES1   0.0000
    19 O      -11.2827  24.8348  20.7225   O.3       1 RES1   0.0000
    20 O      -11.9724  27.2653  20.0257   O.3       1 RES1   0.0000
    21 P      -12.8616  27.2687  21.3568   P.3       1 RES1   0.0000
    22 O      -13.9917  28.2234  21.1795   O.2       1 RES1   0.0000
    23 O      -11.9635  27.7290  22.5985   O.3       1 RES1   0.0000
    24 O      -13.4418  25.7978  21.6120   O.3       1 RES1   0.0000
    25 P      -13.1346  25.2752  23.0944   P.3       1 RES1   0.0000
    26 O      -11.6630  25.1760  23.3060   O.2       1 RES1   0.0000
    27 O      -13.7659  26.2654  24.1818   O.3       1 RES1   0.0000
    28 O      -13.7853  23.8251  23.2768   O.3       1 RES1   0.0000
    29 O       -9.3559  26.6749  15.6575   O.3       1 RES1   0.0000
    30 O       -7.0443  26.3692  14.5217   O.3       1 RES1   0.0000
    31 N       -2.0008  21.4047  14.5532   N.pl3     1 RES1   0.0000
    32 H1      -1.9115  25.8431  14.1170   H         1 RES1   0.0000
    33 H2      -6.6325  22.1519  16.7151   H         1 RES1   0.0000
    34 H3      -5.8460  25.8231  16.6344   H         1 RES1   0.0000
    35 H4      -7.5379  24.3401  14.5904   H         1 RES1   0.0000
    36 H5      -9.4201  24.5889  15.8460   H         1 RES1   0.0000
    37 H6      -7.9491  26.4404  17.7952   H         1 RES1   0.0000
    38 H7      -9.7064  23.9242  18.2188   H         1 RES1   0.0000
    39 H8      -9.0127  24.9601  19.5084   H         1 RES1   0.0000
    40 H9     -10.7532  24.1162  20.3974   H         1 RES1   0.0000
    41 H10    -11.8031  28.6639  22.5443   H         1 RES1   0.0000
    42 H11    -13.3160  27.1017  24.1592   H         1 RES1   0.0000
    43 H12    -14.3842  23.8365  24.0142   H         1 RES1   0.0000
    44 H13     -9.9540  26.5438  14.9307   H         1 RES1   0.0000
    45 H14     -6.2126  26.7056  14.8360   H         1 RES1   0.0000
    46 H15     -1.0714  21.3096  14.1194   H         1 RES1   0.0000
    47 H16     -2.5082  20.5661  14.8704   H         1 RES1   0.0000
    48 ****    -1.0098  23.6680  13.8790   Du        1 RES1   0.0000
    49 ****    -4.0699  26.0624  15.1243   Du        1 RES1   0.0000
    50 ****    -4.5719  20.9105  15.8075   Du        1 RES1   0.0000
    51 ****    -7.5329  23.5877  17.3686   Du        1 RES1   0.0000
    52 ****    -6.6773  24.5895  18.3335   Du        1 RES1   0.0000
    53 ****   -13.4243  25.7439  18.1659   Du        1 RES1   0.0000
    54 ****   -13.3009  24.3330  19.1631   Du        1 RES1   0.0000
    55 ****   -12.1006  24.4712  21.1683   Du        1 RES1   0.0000
    56 ****   -10.7526  25.3676  21.3822   Du        1 RES1   0.0000
    57 ****   -14.4620  28.2835  20.2991   Du        1 RES1   0.0000
    58 ****   -14.2798  28.8041  21.9410   Du        1 RES1   0.0000
    59 ****   -11.0916  27.2396  22.5788   Du        1 RES1   0.0000
    60 ****   -12.4428  27.5220  23.4514   Du        1 RES1   0.0000
    61 ****   -11.0917  25.9938  23.2373   Du        1 RES1   0.0000
    62 ****   -11.2466  24.2915  23.5167   Du        1 RES1   0.0000
    63 ****   -13.6701  25.8623  25.0920   Du        1 RES1   0.0000
    64 ****   -14.7352  26.4051  23.9795   Du        1 RES1   0.0000
    65 ****   -13.0628  23.1545  23.4448   Du        1 RES1   0.0000
    66 ****   -14.2840  23.5769  22.4463   Du        1 RES1   0.0000
    67 ****    -8.6458  27.3245  15.3859   Du        1 RES1   0.0000
    68 ****    -9.8622  27.0416  16.4380   Du        1 RES1   0.0000
    69 ****    -7.7469  27.0723  14.6310   Du        1 RES1   0.0000
    70 ****    -6.9591  26.1307  13.5543   Du        1 RES1   0.0000
@<TRIPOS>BOND
     1     1     2   ar
     2     2     3   ar
     3     3     4   ar
     4     4     5   ar
     5     5     6   ar
     6     1     6   ar
     7     5     7   ar
     8     7     8   ar
     9     8     9   ar
    10     4     9   ar
    11     7    10    1
    12    10    11    1
    13    11    12    1
    14    12    13    1
    15    13    14    1
    16    10    14    1
    17    13    15    1
    18    15    16    1
    19    16    17    1
    20    17    18    2
    21    17    19    1
    22    17    20    1
    23    20    21    1
    24    21    22    2
    25    21    23    1
    26    21    24    1
    27    24    25    1
    28    25    26    2
    29    25    27    1
    30    25    28    1
    31    12    29    1
    32    11    30    1
    33     3    31    1
    34     1    32    1
    35     8    33    1
    36    10    34    1
    37    11    35    1
    38    12    36    1
    39    13    37    1
    40    15    38    1
    41    15    39    1
    42    19    40    1
    43    23    41    1
    44    27    42    1
    45    28    43    1
    46    29    44    1
    47    30    45    1
    48    31    46    1
    49    31    47    1
    50     2    48    1
    51     6    49    1
    52     9    50    1
    53    14    51    1
    54    14    52    1
    55    18    53    1
    56    18    54    1
    57    19    55    1
    58    19    56    1
    59    22    57    1
    60    22    58    1
    61    23    59    1
    62    23    60    1
    63    26    61    1
    64    26    62    1
    65    27    63    1
    66    27    64    1
    67    28    65    1
    68    28    66    1
    69    29    67    1
    70    29    68    1
    71    30    69    1
    72    30    70    1
@<TRIPOS>SUBSTRUCTURE
     1 RES1        1 GROUP             0 ****  ****    0  
@<TRIPOS>MOLECULE
43.5742
    70    72     1     0     0
SMALL
NO_CHARGES
****
Generated from the CSD

@<TRIPOS>ATOM
     1 C       -5.4074  24.6993  11.6430   C.ar      1 RES1   0.0000
     2 N       -5.7022  24.8109  12.9588   N.ar      1 RES1   0.0000
     3 C       -4.7426  24.7609  13.9066   C.ar      1 RES1   0.0000
     4 C       -3.4312  24.5893  13.4726   C.ar      1 RES1   0.0000
     5 C       -3.1595  24.4714  12.1188   C.ar      1 RES1   0.0000
     6 N       -4.1417  24.5317  11.2038   N.ar      1 RES1   0.0000
     7 N       -1.8310  24.3010  12.0099   N.ar      1 RES1   0.0000
     8 C       -1.2763  24.3225  13.2391   C.ar      1 RES1   0.0000
     9 N       -2.2654  24.5016  14.1391   N.ar      1 RES1   0.0000
    10 C       -1.1459  24.1462  10.8432   C.3       1 RES1   0.0000
    11 C        0.2670  24.7677  10.8861   C.3       1 RES1   0.0000
    12 C        1.1526  23.7349  10.1530   C.3       1 RES1   0.0000
    13 C        0.1344  22.7189   9.5950   C.3       1 RES1   0.0000
    14 O       -0.8914  22.7644  10.5885   O.3       1 RES1   0.0000
    15 C        0.7069  21.2921   9.4558   C.3       1 RES1   0.0000
    16 O        0.8920  20.6991  10.7470   O.3       1 RES1   0.0000
    17 P        1.2701  19.1549  10.9356   P.3       1 RES1   0.0000
    18 O        2.4960  18.8626  10.1403   O.2       1 RES1   0.0000
    19 O        1.5639  18.8547  12.4793   O.3       1 RES1   0.0000
    20 O        0.0480  18.2530  10.4277   O.3       1 RES1   0.0000
    21 P        0.4359  16.7000  10.4153   P.3       1 RES1   0.0000
    22 O        0.8744  16.3015  11.7824   O.2       1 RES1   0.0000
    23 O        1.6302  16.4555   9.3790   O.3       1 RES1   0.0000
    24 O       -0.8450  15.8358   9.9936   O.3       1 RES1   0.0000
    25 P       -2.2181  16.6034  10.2945   P.3       1 RES1   0.0000
    26 O       -2.2631  17.8853   9.5361   O.2       1 RES1   0.0000
    27 O       -3.4712  15.6956   9.8855   O.3       1 RES1   0.0000
    28 O       -2.3001  16.9221  11.8601   O.3       1 RES1   0.0000
    29 O        1.9208  24.3504   9.1124   O.3       1 RES1   0.0000
    30 O        0.2848  26.0334  10.2159   O.3       1 RES1   0.0000
    31 N       -5.0368  24.8708  15.2199   N.pl3     1 RES1   0.0000
    32 H1      -6.2125  24.7458  10.9187   H         1 RES1   0.0000
    33 H2      -0.2220  24.2144  13.4672   H         1 RES1   0.0000
    34 H3      -1.7096  24.5602   9.9928   H         1 RES1   0.0000
    35 H4       0.6152  24.8780  11.9252   H         1 RES1   0.0000
    36 H5       1.8090  23.2416  10.8869   H         1 RES1   0.0000
    37 H6      -0.2596  23.0781   8.6318   H         1 RES1   0.0000
    38 H7       0.0168  20.6628   8.8748   H         1 RES1   0.0000
    39 H8       1.6773  21.3379   8.9394   H         1 RES1   0.0000
    40 H9       0.7487  18.8764  12.9666   H         1 RES1   0.0000
    41 H10      1.3106  15.9506   8.6404   H         1 RES1   0.0000
    42 H11     -3.2725  14.7797  10.0397   H         1 RES1   0.0000
    43 H12     -3.0563  16.4851  12.2338   H         1 RES1   0.0000
    44 H13      2.5930  23.7567   8.7980   H         1 RES1   0.0000
    45 H14      1.1763  26.3542  10.1391   H         1 RES1   0.0000
    46 H15     -6.0145  24.9963  15.5184   H         1 RES1   0.0000
    47 H16     -4.2858  24.8285  15.9239   H         1 RES1   0.0000
    48 ****    -6.6552  24.9334  13.2360   Du        1 RES1   0.0000
    49 ****    -3.9412  24.4547  10.2271   Du        1 RES1   0.0000
    50 ****    -2.1517  24.5593  15.1309   Du        1 RES1   0.0000
    51 ****    -0.5837  22.3097  11.4243   Du        1 RES1   0.0000
    52 ****    -1.7196  22.3168  10.2511   Du        1 RES1   0.0000
    53 ****     2.6455  17.9454   9.7709   Du        1 RES1   0.0000
    54 ****     3.1692  19.5836   9.9761   Du        1 RES1   0.0000
    55 ****     2.1871  19.5480  12.8410   Du        1 RES1   0.0000
    56 ****     1.9822  17.9509  12.5694   Du        1 RES1   0.0000
    57 ****     1.7858  15.9143  11.9221   Du        1 RES1   0.0000
    58 ****     0.2574  16.4212  12.5602   Du        1 RES1   0.0000
    59 ****     2.3670  15.9536   9.8320   Du        1 RES1   0.0000
    60 ****     1.9765  17.3362   9.0557   Du        1 RES1   0.0000
    61 ****    -1.7797  17.9680   8.6646   Du        1 RES1   0.0000
    62 ****    -2.7768  18.6630   9.8986   Du        1 RES1   0.0000
    63 ****    -3.6764  15.8315   8.9163   Du        1 RES1   0.0000
    64 ****    -4.2644  15.9594  10.4344   Du        1 RES1   0.0000
    65 ****    -2.3854  17.9093  11.9951   Du        1 RES1   0.0000
    66 ****    -1.4696  16.5946  12.3106   Du        1 RES1   0.0000
    67 ****     2.3539  25.1782   9.4690   Du        1 RES1   0.0000
    68 ****     1.3144  24.5914   8.3546   Du        1 RES1   0.0000
    69 ****    -0.2583  26.6908  10.7384   Du        1 RES1   0.0000
    70 ****    -0.1078  25.9282   9.3022   Du        1 RES1   0.0000
@<TRIPOS>BOND
     1     1     2   ar
     2     2     3   ar
     3     3     4   ar
     4     4     5   ar
     5     5     6   ar
     6     1     6   ar
     7     5     7   ar
     8     7     8   ar
     9     8     9   ar
    10     4     9   ar
    11     7    10    1
    12    10    11    1
    13    11    12    1
    14    12    13    1
    15    13    14    1
    16    10    14    1
    17    13    15    1
    18    15    16    1
    19    16    17    1
    20    17    18    2
    21    17    19    1
    22    17    20    1
    23    20    21    1
    24    21    22    2
    25    21    23    1
    26    21    24    1
    27    24    25    1
    28    25    26    2
    29    25    27    1
    30    25    28    1
    31    12    29    1
    32    11    30    1
    33     3    31    1
    34     1    32    1
    35     8    33    1
    36    10    34    1
    37    11    35    1
    38    12    36    1
    39    13    37    1
    40    15    38    1
    41    15    39    1
    42    19    40    1
    43    23    41    1
    44    27    42    1
    45    28    43    1
    46    29    44    1
    47    30    45    1
    48    31    46    1
    49    31    47    1
    50     2    48    1
    51     6    49    1
    52     9    50    1
    53    14    51    1
    54    14    52    1
    55    18    53    1
    56    18    54    1
    57    19    55    1
    58    19    56    1
    59    22    57    1
    60    22    58    1
    61    23    59    1
    62    23    60    1
    63    26    61    1
    64    26    62    1
    65    27    63    1
    66    27    64    1
    67    28    65    1
    68    28    66    1
    69    29    67    1
    70    29    68    1
    71    30    69    1
    72    30    70    1
@<TRIPOS>SUBSTRUCTURE
     1 RES1        1 GROUP             0 ****  ****    0  
@<TRIPOS>MOLECULE
42.5373
    70    72     1     0     0
SMALL
NO_CHARGES
****
Generated from the CSD

@<TRIPOS>ATOM
     1 C       -3.5771  24.2971  14.8181   C.ar      1 RES1   0.0000
     2 N       -3.1312  23.1124  15.2959   N.ar      1 RES1   0.0000
     3 C       -3.7433  22.4872  16.3236   C.ar      1 RES1   0.0000
     4 C       -4.8576  23.1141  16.8739   C.ar      1 RES1   0.0000
     5 C       -5.2881  24.3305  16.3684   C.ar      1 RES1   0.0000
     6 N       -4.6555  24.9201  15.3398   N.ar      1 RES1   0.0000
     7 N       -6.3558  24.6913  17.1002   N.ar      1 RES1   0.0000
     8 C       -6.6049  23.7409  18.0242   C.ar      1 RES1   0.0000
     9 N       -5.6802  22.7690  17.8815   N.ar      1 RES1   0.0000
    10 C       -7.0844  25.8291  16.9296   C.3       1 RES1   0.0000
    11 C       -8.4394  25.5790  16.2326   C.3       1 RES1   0.0000
    12 C       -9.4278  26.4865  16.9993   C.3       1 RES1   0.0000
    13 C       -8.5133  27.3092  17.9306   C.3       1 RES1   0.0000
    14 O       -7.4592  26.3809  18.1922   O.3       1 RES1   0.0000
    15 C       -9.2053  27.7441  19.2401   C.3       1 RES1   0.0000
    16 O       -8.9873  26.7702  20.2683   O.3       1 RES1   0.0000
    17 P       -8.4648  27.1670  21.7287   P.3       1 RES1   0.0000
    18 O       -7.0985  26.6024  21.9170   O.2       1 RES1   0.0000
    19 O       -8.3961  28.7595  21.8643   O.3       1 RES1   0.0000
    20 O       -9.4704  26.5695  22.8225   O.3       1 RES1   0.0000
    21 P       -8.9585  26.8686  24.3095   P.3       1 RES1   0.0000
    22 O       -9.7332  26.0275  25.2646   O.2       1 RES1   0.0000
    23 O       -9.1869  28.4146  24.6526   O.3       1 RES1   0.0000
    24 O       -7.4027  26.5040  24.4192   O.3       1 RES1   0.0000
    25 P       -6.9161  26.3817  25.9401   P.3       1 RES1   0.0000
    26 O       -6.9241  24.9536  26.3654   O.2       1 RES1   0.0000
    27 O       -5.4420  26.9819  26.1089   O.3       1 RES1   0.0000
    28 O       -7.9201  27.2077  26.8723   O.3       1 RES1   0.0000
    29 O      -10.1721  27.3217  16.1046   O.3       1 RES1   0.0000
    30 O       -8.3719  25.9403  14.8483   O.3       1 RES1   0.0000
    31 N       -3.2975  21.3055  16.8015   N.pl3     1 RES1   0.0000
    32 H1      -3.0524  24.7607  13.9908   H         1 RES1   0.0000
    33 H2      -7.4059  23.7532  18.7548   H         1 RES1   0.0000
    34 H3      -6.5130  26.5878  16.3725   H         1 RES1   0.0000
    35 H4      -8.7474  24.5271  16.3407   H         1 RES1   0.0000
    36 H5     -10.1014  25.8550  17.5995   H         1 RES1   0.0000
    37 H6      -8.1187  28.1821  17.3880   H         1 RES1   0.0000
    38 H7      -8.8018  28.7098  19.5784   H         1 RES1   0.0000
    39 H8     -10.2867  27.8448  19.0644   H         1 RES1   0.0000
    40 H9      -9.2716  29.1213  21.7933   H         1 RES1   0.0000
    41 H10    -10.0229  28.6972  24.3010   H         1 RES1   0.0000
    42 H11     -5.2258  27.5267  25.3615   H         1 RES1   0.0000
    43 H12     -8.7786  26.8016  26.8522   H         1 RES1   0.0000
    44 H13     -9.9611  28.2369  16.2490   H         1 RES1   0.0000
    45 H14     -8.9995  25.4351  14.3438   H         1 RES1   0.0000
    46 H15     -2.4703  20.8601  16.3795   H         1 RES1   0.0000
    47 H16     -3.7822  20.8491  17.5877   H         1 RES1   0.0000
    48 ****    -2.3276  22.6894  14.8771   Du        1 RES1   0.0000
    49 ****    -4.9738  25.7938  14.9718   Du        1 RES1   0.0000
    50 ****    -5.6169  21.9353  18.4302   Du        1 RES1   0.0000
    51 ****    -7.7793  25.6578  18.8043   Du        1 RES1   0.0000
    52 ****    -6.6808  26.8502  18.6092   Du        1 RES1   0.0000
    53 ****    -6.7527  25.9088  21.2851   Du        1 RES1   0.0000
    54 ****    -6.5276  26.9171  22.6753   Du        1 RES1   0.0000
    55 ****    -7.8214  29.1317  21.1354   Du        1 RES1   0.0000
    56 ****    -8.0063  29.0020  22.7527   Du        1 RES1   0.0000
    57 ****    -9.8951  26.3500  26.1973   Du        1 RES1   0.0000
    58 ****   -10.0913  25.1405  24.9731   Du        1 RES1   0.0000
    59 ****    -8.4531  28.9584  24.2453   Du        1 RES1   0.0000
    60 ****    -9.1832  28.5399  25.6448   Du        1 RES1   0.0000
    61 ****    -7.2484  24.2465  25.7370   Du        1 RES1   0.0000
    62 ****    -6.6051  24.7023  27.2793   Du        1 RES1   0.0000
    63 ****    -4.7842  26.2315  26.1732   Du        1 RES1   0.0000
    64 ****    -5.4021  27.5325  26.9427   Du        1 RES1   0.0000
    65 ****    -7.9882  28.1476  26.5378   Du        1 RES1   0.0000
    66 ****    -7.5755  27.2122  27.8111   Du        1 RES1   0.0000
    67 ****   -11.1499  27.1811  16.2602   Du        1 RES1   0.0000
    68 ****    -9.9461  27.0769  15.1617   Du        1 RES1   0.0000
    69 ****    -7.4504  25.7590  14.5048   Du        1 RES1   0.0000
    70 ****    -8.5782  26.9140  14.7513   Du        1 RES1   0.0000
@<TRIPOS>BOND
     1     1     2   ar
     2     2     3   ar
     3     3     4   ar
     4     4     5   ar
     5     5     6   ar
     6     1     6   ar
     7     5     7   ar
     8     7     8   ar
     9     8     9   ar
    10     4     9   ar
    11     7    10    1
    12    10    11    1
    13    11    12    1
    14    12    13    1
    15    13    14    1
    16    10    14    1
    17    13    15    1
    18    15    16    1
    19    16    17    1
    20    17    18    2
    21    17    19    1
    22    17    20    1
    23    20    21    1
    24    21    22    2
    25    21    23    1
    26    21    24    1
    27    24    25    1
    28    25    26    2
    29    25    27    1
    30    25    28    1
    31    12    29    1
    32    11    30    1
    33     3    31    1
    34     1    32    1
    35     8    33    1
    36    10    34    1
    37    11    35    1
    38    12    36    1
    39    13    37    1
    40    15    38    1
    41    15    39    1
    42    19    40    1
    43    23    41    1
    44    27    42    1
    45    28    43    1
    46    29    44    1
    47    30    45    1
    48    31    46    1
    49    31    47    1
    50     2    48    1
    51     6    49    1
    52     9    50    1
    53    14    51    1
    54    14    52    1
    55    18    53    1
    56    18    54    1
    57    19    55    1
    58    19    56    1
    59    22    57    1
    60    22    58    1
    61    23    59    1
    62    23    60    1
    63    26    61    1
    64    26    62    1
    65    27    63    1
    66    27    64    1
    67    28    65    1
    68    28    66    1
    69    29    67    1
    70    29    68    1
    71    30    69    1
    72    30    70    1
@<TRIPOS>SUBSTRUCTURE
     1 RES1        1 GROUP             0 ****  ****    0  
@<TRIPOS>MOLECULE
40.7806
    70    72     1     0     0
SMALL
NO_CHARGES
****
Generated from the CSD

@<TRIPOS>ATOM
     1 C       -7.9232  27.5063  18.7513   C.ar      1 RES1   0.0000
     2 N       -8.8930  28.1933  18.1047   N.ar      1 RES1   0.0000
     3 C       -9.3220  27.8287  16.8780   C.ar      1 RES1   0.0000
     4 C       -8.7230  26.7116  16.3030   C.ar      1 RES1   0.0000
     5 C       -7.7274  26.0310  16.9858   C.ar      1 RES1   0.0000
     6 N       -7.3304  26.4211  18.2089   N.ar      1 RES1   0.0000
     7 N       -7.3349  25.0255  16.1853   N.ar      1 RES1   0.0000
     8 C       -8.0571  25.0540  15.0467   C.ar      1 RES1   0.0000
     9 N       -8.9131  26.0941  15.1225   N.ar      1 RES1   0.0000
    10 C       -6.3709  24.1097  16.4796   C.3       1 RES1   0.0000
    11 C       -5.2642  24.6725  17.3976   C.3       1 RES1   0.0000
    12 C       -4.9778  23.5211  18.3879   C.3       1 RES1   0.0000
    13 C       -5.8059  22.3474  17.8247   C.3       1 RES1   0.0000
    14 O       -6.9161  23.0322  17.2417   O.3       1 RES1   0.0000
    15 C       -6.2759  21.3542  18.9089   C.3       1 RES1   0.0000
    16 O       -5.2598  20.3773  19.1668   O.3       1 RES1   0.0000
    17 P       -5.6044  18.8751  19.6003   P.3       1 RES1   0.0000
    18 O       -4.4159  18.0164  19.3343   O.2       1 RES1   0.0000
    19 O       -5.9448  18.8278  21.1628   O.3       1 RES1   0.0000
    20 O       -6.8629  18.3633  18.7524   O.3       1 RES1   0.0000
    21 P       -7.3381  16.9123  19.2333   P.3       1 RES1   0.0000
    22 O       -8.5311  16.5073  18.4379   O.2       1 RES1   0.0000
    23 O       -7.7235  16.9632  20.7855   O.3       1 RES1   0.0000
    24 O       -6.1553  15.8593  18.9936   O.3       1 RES1   0.0000
    25 P       -6.6172  14.3540  19.2865   P.3       1 RES1   0.0000
    26 O       -8.0315  14.3360  19.7553   O.2       1 RES1   0.0000
    27 O       -6.4790  13.4567  17.9685   O.3       1 RES1   0.0000
    28 O       -5.6823  13.7395  20.4301   O.3       1 RES1   0.0000
    29 O       -3.5798  23.2134  18.4413   O.3       1 RES1   0.0000
    30 O       -4.0961  25.0050  16.6384   O.3       1 RES1   0.0000
    31 N      -10.2888  28.5151  16.2320   N.pl3     1 RES1   0.0000
    32 H1      -7.6121  27.8373  19.7354   H         1 RES1   0.0000
    33 H2      -7.9675  24.3646  14.2148   H         1 RES1   0.0000
    34 H3      -5.9211  23.6969  15.5632   H         1 RES1   0.0000
    35 H4      -5.6253  25.5526  17.9525   H         1 RES1   0.0000
    36 H5      -5.3567  23.8024  19.3829   H         1 RES1   0.0000
    37 H6      -5.2314  21.8289  17.0417   H         1 RES1   0.0000
    38 H7      -6.4943  21.8906  19.8441   H         1 RES1   0.0000
    39 H8      -7.1866  20.8424  18.5637   H         1 RES1   0.0000
    40 H9      -6.0142  17.9232  21.4444   H         1 RES1   0.0000
    41 H10     -8.5944  16.6039  20.9078   H         1 RES1   0.0000
    42 H11     -5.5631  13.2753  17.7939   H         1 RES1   0.0000
    43 H12     -5.7201  12.7909  20.3953   H         1 RES1   0.0000
    44 H13     -3.3308  22.6632  17.7077   H         1 RES1   0.0000
    45 H14     -4.1648  25.8894  16.2963   H         1 RES1   0.0000
    46 H15    -10.7176  29.3396  16.6762   H         1 RES1   0.0000
    47 H16    -10.5980  28.2168  15.2956   H         1 RES1   0.0000
    48 ****    -9.3023  28.9914  18.5469   Du        1 RES1   0.0000
    49 ****    -6.6177  25.9228  18.7025   Du        1 RES1   0.0000
    50 ****    -9.5751  26.3604  14.4220   Du        1 RES1   0.0000
    51 ****    -7.5191  23.3851  17.9572   Du        1 RES1   0.0000
    52 ****    -7.4304  22.4138  16.6474   Du        1 RES1   0.0000
    53 ****    -4.5263  17.1424  18.8611   Du        1 RES1   0.0000
    54 ****    -3.5078  18.3143  19.6288   Du        1 RES1   0.0000
    55 ****    -6.8125  19.2963  21.3293   Du        1 RES1   0.0000
    56 ****    -5.2169  19.2820  21.6765   Du        1 RES1   0.0000
    57 ****    -9.1956  15.8673  18.8237   Du        1 RES1   0.0000
    58 ****    -8.6673  16.8754  17.5181   Du        1 RES1   0.0000
    59 ****    -7.7068  17.9116  21.1021   Du        1 RES1   0.0000
    60 ****    -7.0641  16.4249  21.3103   Du        1 RES1   0.0000
    61 ****    -8.7044  14.9467  19.3378   Du        1 RES1   0.0000
    62 ****    -8.3077  13.7133  20.4874   Du        1 RES1   0.0000
    63 ****    -6.8736  13.9469  17.1912   Du        1 RES1   0.0000
    64 ****    -6.9679  12.5946  18.1019   Du        1 RES1   0.0000
    65 ****    -6.0006  14.0529  21.3248   Du        1 RES1   0.0000
    66 ****    -4.7396  14.0408  20.2874   Du        1 RES1   0.0000
    67 ****    -3.3813  22.7325  19.2953   Du        1 RES1   0.0000
    68 ****    -3.0544  24.0637  18.4078   Du        1 RES1   0.0000
    69 ****    -4.0039  24.3633  15.8770   Du        1 RES1   0.0000
    70 ****    -3.2906  24.9410  17.2275   Du        1 RES1   0.0000
@<TRIPOS>BOND
     1     1     2   ar
     2     2     3   ar
     3     3     4   ar
     4     4     5   ar
     5     5     6   ar
     6     1     6   ar
     7     5     7   ar
     8     7     8   ar
     9     8     9   ar
    10     4     9   ar
    11     7    10    1
    12    10    11    1
    13    11    12    1
    14    12    13    1
    15    13    14    1
    16    10    14    1
    17    13    15    1
    18    15    16    1
    19    16    17    1
    20    17    18    2
    21    17    19    1
    22    17    20    1
    23    20    21    1
    24    21    22    2
    25    21    23    1
    26    21    24    1
    27    24    25    1
    28    25    26    2
    29    25    27    1
    30    25    28    1
    31    12    29    1
    32    11    30    1
    33     3    31    1
    34     1    32    1
    35     8    33    1
    36    10    34    1
    37    11    35    1
    38    12    36    1
    39    13    37    1
    40    15    38    1
    41    15    39    1
    42    19    40    1
    43    23    41    1
    44    27    42    1
    45    28    43    1
    46    29    44    1
    47    30    45    1
    48    31    46    1
    49    31    47    1
    50     2    48    1
    51     6    49    1
    52     9    50    1
    53    14    51    1
    54    14    52    1
    55    18    53    1
    56    18    54    1
    57    19    55    1
    58    19    56    1
    59    22    57    1
    60    22    58    1
    61    23    59    1
    62    23    60    1
    63    26    61    1
    64    26    62    1
    65    27    63    1
    66    27    64    1
    67    28    65    1
    68    28    66    1
    69    29    67    1
    70    29    68    1
    71    30    69    1
    72    30    70    1
@<TRIPOS>SUBSTRUCTURE
     1 RES1        1 GROUP             0 ****  ****    0  
@<TRIPOS>MOLECULE
40.5515
    70    72     1     0     0
SMALL
NO_CHARGES
****
Generated from the CSD

@<TRIPOS>ATOM
     1 C       -6.0535  25.2102  12.5527   C.ar      1 RES1   0.0000
     2 N       -5.2193  24.9854  11.5114   N.ar      1 RES1   0.0000
     3 C       -3.9768  24.4907  11.6930   C.ar      1 RES1   0.0000
     4 C       -3.5871  24.2199  13.0016   C.ar      1 RES1   0.0000
     5 C       -4.4602  24.4663  14.0492   C.ar      1 RES1   0.0000
     6 N       -5.6926  24.9544  13.8284   N.ar      1 RES1   0.0000
     7 N       -3.8092  24.1292  15.1755   N.ar      1 RES1   0.0000
     8 C       -2.5790  23.6749  14.8606   C.ar      1 RES1   0.0000
     9 N       -2.4453  23.7309  13.5193   N.ar      1 RES1   0.0000
    10 C       -4.3137  24.2163  16.4375   C.3       1 RES1   0.0000
    11 C       -4.5759  25.6711  16.8834   C.3       1 RES1   0.0000
    12 C       -5.9242  25.5949  17.6350   C.3       1 RES1   0.0000
    13 C       -6.2074  24.0803  17.7140   C.3       1 RES1   0.0000
    14 O       -5.6055  23.6117  16.5059   O.3       1 RES1   0.0000
    15 C       -7.7127  23.7402  17.7503   C.3       1 RES1   0.0000
    16 O       -8.1624  23.6045  19.1040   O.3       1 RES1   0.0000
    17 P       -7.6428  22.4362  20.0675   P.3       1 RES1   0.0000
    18 O       -6.7978  21.5013  19.2721   O.2       1 RES1   0.0000
    19 O       -6.7629  23.0607  21.2487   O.3       1 RES1   0.0000
    20 O       -8.9057  21.6637  20.6783   O.3       1 RES1   0.0000
    21 P       -8.4482  20.4691  21.6406   P.3       1 RES1   0.0000
    22 O       -7.6154  19.5122  20.8590   O.2       1 RES1   0.0000
    23 O       -9.7402  19.7138  22.2065   O.3       1 RES1   0.0000
    24 O       -7.5832  21.0631  22.8506   O.3       1 RES1   0.0000
    25 P       -7.0671  19.9180  23.8444   P.3       1 RES1   0.0000
    26 O       -6.2071  20.5128  24.9060   O.2       1 RES1   0.0000
    27 O       -8.3044  19.1603  24.5202   O.3       1 RES1   0.0000
    28 O       -6.2060  18.8588  23.0101   O.3       1 RES1   0.0000
    29 O       -5.8326  26.1914  18.9342   O.3       1 RES1   0.0000
    30 O       -3.5288  26.1342  17.7440   O.3       1 RES1   0.0000
    31 N       -3.1436  24.2676  10.6541   N.pl3     1 RES1   0.0000
    32 H1      -7.0424  25.6083  12.3568   H         1 RES1   0.0000
    33 H2      -1.8274  23.3262  15.5598   H         1 RES1   0.0000
    34 H3      -3.6550  23.7163  17.1646   H         1 RES1   0.0000
    35 H4      -4.6789  26.3358  16.0113   H         1 RES1   0.0000
    36 H5      -6.6998  26.0891  17.0293   H         1 RES1   0.0000
    37 H6      -5.6879  23.6497  18.5839   H         1 RES1   0.0000
    38 H7      -8.2927  24.5388  17.2648   H         1 RES1   0.0000
    39 H8      -7.8848  22.7927  17.2182   H         1 RES1   0.0000
    40 H9      -5.8409  22.9676  21.0396   H         1 RES1   0.0000
    41 H10     -9.7246  19.7273  23.1563   H         1 RES1   0.0000
    42 H11     -8.8939  18.8382  23.8486   H         1 RES1   0.0000
    43 H12     -5.3129  18.8506  23.3337   H         1 RES1   0.0000
    44 H13     -4.9517  26.1047  19.2799   H         1 RES1   0.0000
    45 H14     -3.7855  26.0441  18.6549   H         1 RES1   0.0000
    46 H15     -3.4527  24.4762   9.6940   H         1 RES1   0.0000
    47 H16     -2.1993  23.8902  10.8195   H         1 RES1   0.0000
    48 ****    -5.5313  25.1909  10.5838   Du        1 RES1   0.0000
    49 ****    -6.3232  25.1231  14.5859   Du        1 RES1   0.0000
    50 ****    -1.6366  23.4562  12.9991   Du        1 RES1   0.0000
    51 ****    -6.1567  23.8834  15.7170   Du        1 RES1   0.0000
    52 ****    -5.5205  22.6155  16.5259   Du        1 RES1   0.0000
    53 ****    -6.7944  20.5247  19.4870   Du        1 RES1   0.0000
    54 ****    -6.2343  21.8505  18.5235   Du        1 RES1   0.0000
    55 ****    -6.9613  22.5795  22.1025   Du        1 RES1   0.0000
    56 ****    -6.9848  24.0302  21.3530   Du        1 RES1   0.0000
    57 ****    -6.6414  19.4145  21.0633   Du        1 RES1   0.0000
    58 ****    -8.0305  18.9676  20.1302   Du        1 RES1   0.0000
    59 ****    -9.7392  18.7663  21.8867   Du        1 RES1   0.0000
    60 ****   -10.5654  20.1748  21.8802   Du        1 RES1   0.0000
    61 ****    -5.5977  19.9282  25.4416   Du        1 RES1   0.0000
    62 ****    -6.2394  21.4965  25.0828   Du        1 RES1   0.0000
    63 ****    -8.7963  19.7953  25.1159   Du        1 RES1   0.0000
    64 ****    -7.9659  18.3903  25.0609   Du        1 RES1   0.0000
    65 ****    -6.2078  19.1155  22.0436   Du        1 RES1   0.0000
    66 ****    -6.6064  17.9484  23.1139   Du        1 RES1   0.0000
    67 ****    -6.4744  25.7359  19.5511   Du        1 RES1   0.0000
    68 ****    -6.0657  27.1616  18.8677   Du        1 RES1   0.0000
    69 ****    -3.3422  27.0968  17.5477   Du        1 RES1   0.0000
    70 ****    -2.7034  25.5943  17.5791   Du        1 RES1   0.0000
@<TRIPOS>BOND
     1     1     2   ar
     2     2     3   ar
     3     3     4   ar
     4     4     5   ar
     5     5     6   ar
     6     1     6   ar
     7     5     7   ar
     8     7     8   ar
     9     8     9   ar
    10     4     9   ar
    11     7    10    1
    12    10    11    1
    13    11    12    1
    14    12    13    1
    15    13    14    1
    16    10    14    1
    17    13    15    1
    18    15    16    1
    19    16    17    1
    20    17    18    2
    21    17    19    1
    22    17    20    1
    23    20    21    1
    24    21    22    2
    25    21    23    1
    26    21    24    1
    27    24    25    1
    28    25    26    2
    29    25    27    1
    30    25    28    1
    31    12    29    1
    32    11    30    1
    33     3    31    1
    34     1    32    1
    35     8    33    1
    36    10    34    1
    37    11    35    1
    38    12    36    1
    39    13    37    1
    40    15    38    1
    41    15    39    1
    42    19    40    1
    43    23    41    1
    44    27    42    1
    45    28    43    1
    46    29    44    1
    47    30    45    1
    48    31    46    1
    49    31    47    1
    50     2    48    1
    51     6    49    1
    52     9    50    1
    53    14    51    1
    54    14    52    1
    55    18    53    1
    56    18    54    1
    57    19    55    1
    58    19    56    1
    59    22    57    1
    60    22    58    1
    61    23    59    1
    62    23    60    1
    63    26    61    1
    64    26    62    1
    65    27    63    1
    66    27    64    1
    67    28    65    1
    68    28    66    1
    69    29    67    1
    70    29    68    1
    71    30    69    1
    72    30    70    1
@<TRIPOS>SUBSTRUCTURE
     1 RES1        1 GROUP             0 ****  ****    0  
@<TRIPOS>MOLECULE
39.5264
    70    72     1     0     0
SMALL
NO_CHARGES
****
Generated from the CSD

@<TRIPOS>ATOM
     1 C       -4.2346  24.6996  13.5958   C.ar      1 RES1   0.0000
     2 N       -4.6744  24.9180  12.3350   N.ar      1 RES1   0.0000
     3 C       -5.9904  25.0071  12.0492   C.ar      1 RES1   0.0000
     4 C       -6.8806  24.8645  13.1097   C.ar      1 RES1   0.0000
     5 C       -6.4018  24.6349  14.3898   C.ar      1 RES1   0.0000
     6 N       -5.0831  24.5580  14.6365   N.ar      1 RES1   0.0000
     7 N       -7.4789  24.5248  15.1858   N.ar      1 RES1   0.0000
     8 C       -8.5966  24.6900  14.4492   C.ar      1 RES1   0.0000
     9 N       -8.2245  24.9005  13.1696   N.ar      1 RES1   0.0000
    10 C       -7.4511  24.2977  16.5282   C.3       1 RES1   0.0000
    11 C       -6.0259  24.0519  17.0691   C.3       1 RES1   0.0000
    12 C       -5.9950  24.8244  18.4074   C.3       1 RES1   0.0000
    13 C       -7.4582  25.2756  18.5966   C.3       1 RES1   0.0000
    14 O       -7.8808  25.4564  17.2438   O.3       1 RES1   0.0000
    15 C       -7.5954  26.5872  19.3990   C.3       1 RES1   0.0000
    16 O       -8.4527  27.5068  18.7116   O.3       1 RES1   0.0000
    17 P      -10.0430  27.4985  18.8959   P.3       1 RES1   0.0000
    18 O      -10.4683  28.8204  19.4367   O.2       1 RES1   0.0000
    19 O      -10.7501  27.2602  17.4807   O.3       1 RES1   0.0000
    20 O      -10.4443  26.3260  19.9102   O.3       1 RES1   0.0000
    21 P      -10.8911  26.9125  21.3311   P.3       1 RES1   0.0000
    22 O      -12.1471  27.6949  21.1566   O.2       1 RES1   0.0000
    23 O       -9.7412  27.8685  21.9003   O.3       1 RES1   0.0000
    24 O      -11.1541  25.7021  22.3466   O.3       1 RES1   0.0000
    25 P      -11.6499  26.2132  23.7811   P.3       1 RES1   0.0000
    26 O      -11.1794  25.2823  24.8453   O.2       1 RES1   0.0000
    27 O      -11.0966  27.6858  24.0756   O.3       1 RES1   0.0000
    28 O      -13.2492  26.2504  23.7925   O.3       1 RES1   0.0000
    29 O       -5.5484  23.9896  19.4824   O.3       1 RES1   0.0000
    30 O       -5.7952  22.6531  17.2733   O.3       1 RES1   0.0000
    31 N       -6.4296  25.2237  10.7908   N.pl3     1 RES1   0.0000
    32 H1      -3.1677  24.6361  13.7762   H         1 RES1   0.0000
    33 H2      -9.6158  24.6589  14.8174   H         1 RES1   0.0000
    34 H3      -8.1046  23.4552  16.8030   H         1 RES1   0.0000
    35 H4      -5.2699  24.4704  16.3862   H         1 RES1   0.0000
    36 H5      -5.3434  25.7053  18.2970   H         1 RES1   0.0000
    37 H6      -8.0390  24.4670  19.0664   H         1 RES1   0.0000
    38 H7      -8.0235  26.3806  20.3909   H         1 RES1   0.0000
    39 H8      -6.6023  27.0449  19.5211   H         1 RES1   0.0000
    40 H9     -11.5417  27.7830  17.4304   H         1 RES1   0.0000
    41 H10     -9.5782  28.5711  21.2820   H         1 RES1   0.0000
    42 H11    -10.5479  27.6774  24.8508   H         1 RES1   0.0000
    43 H12    -13.5448  27.1322  23.9861   H         1 RES1   0.0000
    44 H13     -4.8912  24.4379  20.0022   H         1 RES1   0.0000
    45 H14     -5.9836  22.1675  16.4780   H         1 RES1   0.0000
    46 H15     -5.7528  25.3252  10.0210   H         1 RES1   0.0000
    47 H16     -7.4398  25.2866  10.5986   H         1 RES1   0.0000
    48 ****    -4.0075  25.0160  11.5964   Du        1 RES1   0.0000
    49 ****    -4.7407  24.4007  15.5627   Du        1 RES1   0.0000
    50 ****    -8.8414  25.0564  12.3981   Du        1 RES1   0.0000
    51 ****    -7.4605  26.2772  16.8570   Du        1 RES1   0.0000
    52 ****    -8.8764  25.5399  17.2007   Du        1 RES1   0.0000
    53 ****   -11.2953  28.8898  19.9946   Du        1 RES1   0.0000
    54 ****    -9.9266  29.6381  19.2418   Du        1 RES1   0.0000
    55 ****   -10.9828  26.2926  17.3830   Du        1 RES1   0.0000
    56 ****   -10.1261  27.5287  16.7468   Du        1 RES1   0.0000
    57 ****   -12.9913  27.2316  20.8872   Du        1 RES1   0.0000
    58 ****   -12.1457  28.6832  21.3089   Du        1 RES1   0.0000
    59 ****    -8.9029  27.3394  22.0323   Du        1 RES1   0.0000
    60 ****   -10.0323  28.2555  22.7752   Du        1 RES1   0.0000
    61 ****   -10.2095  25.0480  24.9117   Du        1 RES1   0.0000
    62 ****   -11.8335  24.8919  25.4932   Du        1 RES1   0.0000
    63 ****   -11.8673  28.3061  24.2219   Du        1 RES1   0.0000
    64 ****   -10.5595  28.0005  23.2929   Du        1 RES1   0.0000
    65 ****   -13.5921  25.6230  24.4916   Du        1 RES1   0.0000
    66 ****   -13.5953  25.9722  22.8964   Du        1 RES1   0.0000
    67 ****    -5.1541  23.1513  19.1058   Du        1 RES1   0.0000
    68 ****    -6.3276  23.7589  20.0652   Du        1 RES1   0.0000
    69 ****    -6.3885  22.3250  18.0083   Du        1 RES1   0.0000
    70 ****    -4.8388  22.5104  17.5280   Du        1 RES1   0.0000
@<TRIPOS>BOND
     1     1     2   ar
     2     2     3   ar
     3     3     4   ar
     4     4     5   ar
     5     5     6   ar
     6     1     6   ar
     7     5     7   ar
     8     7     8   ar
     9     8     9   ar
    10     4     9   ar
    11     7    10    1
    12    10    11    1
    13    11    12    1
    14    12    13    1
    15    13    14    1
    16    10    14    1
    17    13    15    1
    18    15    16    1
    19    16    17    1
    20    17    18    2
    21    17    19    1
    22    17    20    1
    23    20    21    1
    24    21    22    2
    25    21    23    1
    26    21    24    1
    27    24    25    1
    28    25    26    2
    29    25    27    1
    30    25    28    1
    31    12    29    1
    32    11    30    1
    33     3    31    1
    34     1    32    1
    35     8    33    1
    36    10    34    1
    37    11    35    1
    38    12    36    1
    39    13    37    1
    40    15    38    1
    41    15    39    1
    42    19    40    1
    43    23    41    1
    44    27    42    1
    45    28    43    1
    46    29    44    1
    47    30    45    1
    48    31    46    1
    49    31    47    1
    50     2    48    1
    51     6    49    1
    52     9    50    1
    53    14    51    1
    54    14    52    1
    55    18    53    1
    56    18    54    1
    57    19    55    1
    58    19    56    1
    59    22    57    1
    60    22    58    1
    61    23    59    1
    62    23    60    1
    63    26    61    1
    64    26    62    1
    65    27    63    1
    66    27    64    1
    67    28    65    1
    68    28    66    1
    69    29    67    1
    70    29    68    1
    71    30    69    1
    72    30    70    1
@<TRIPOS>SUBSTRUCTURE
     1 RES1        1 GROUP             0 ****  ****    0  
@<TRIPOS>MOLECULE
38.6343
    70    72     1     0     0
SMALL
NO_CHARGES
****
Generated from the CSD

@<TRIPOS>ATOM
     1 C      -10.5953  27.7037  19.0369   C.ar      1 RES1   0.0000
     2 N      -11.8648  27.7705  18.5737   N.ar      1 RES1   0.0000
     3 C      -12.1799  27.4014  17.3142   C.ar      1 RES1   0.0000
     4 C      -11.1403  26.9469  16.5080   C.ar      1 RES1   0.0000
     5 C       -9.8484  26.8953  17.0071   C.ar      1 RES1   0.0000
     6 N       -9.5744  27.2663  18.2692   N.ar      1 RES1   0.0000
     7 N       -9.0720  26.4398  16.0093   N.ar      1 RES1   0.0000
     8 C       -9.8360  26.1982  14.9244   C.ar      1 RES1   0.0000
     9 N      -11.1111  26.5107  15.2352   N.ar      1 RES1   0.0000
    10 C       -7.7273  26.2374  16.0821   C.3       1 RES1   0.0000
    11 C       -7.0802  26.9182  17.3076   C.3       1 RES1   0.0000
    12 C       -6.0583  25.8771  17.8180   C.3       1 RES1   0.0000
    13 C       -6.0812  24.7856  16.7278   C.3       1 RES1   0.0000
    14 O       -7.4366  24.8535  16.2810   O.3       1 RES1   0.0000
    15 C       -5.7454  23.3776  17.2642   C.3       1 RES1   0.0000
    16 O       -6.8414  22.8585  18.0273   O.3       1 RES1   0.0000
    17 P       -6.6396  22.1658  19.4566   P.3       1 RES1   0.0000
    18 O       -7.6298  21.0609  19.5960   O.2       1 RES1   0.0000
    19 O       -5.1623  21.5608  19.5605   O.3       1 RES1   0.0000
    20 O       -6.8620  23.2616  20.6031   O.3       1 RES1   0.0000
    21 P       -6.4501  22.6918  22.0412   P.3       1 RES1   0.0000
    22 O       -6.6984  23.7443  23.0662   O.2       1 RES1   0.0000
    23 O       -4.8976  22.3049  22.0383   O.3       1 RES1   0.0000
    24 O       -7.3387  21.4019  22.3760   O.3       1 RES1   0.0000
    25 P       -7.1317  20.8994  23.8826   P.3       1 RES1   0.0000
    26 O       -7.4646  21.9948  24.8364   O.2       1 RES1   0.0000
    27 O       -8.0565  19.6284  24.1836   O.3       1 RES1   0.0000
    28 O       -5.6001  20.4828  24.0829   O.3       1 RES1   0.0000
    29 O       -4.7563  26.4545  17.9710   O.3       1 RES1   0.0000
    30 O       -6.4314  28.1370  16.9268   O.3       1 RES1   0.0000
    31 N      -13.4465  27.4694  16.8513   N.pl3     1 RES1   0.0000
    32 H1     -10.3914  28.0110  20.0561   H         1 RES1   0.0000
    33 H2      -9.4895  25.8203  13.9692   H         1 RES1   0.0000
    34 H3      -7.2242  26.5712  15.1612   H         1 RES1   0.0000
    35 H4      -7.8304  27.1106  18.0906   H         1 RES1   0.0000
    36 H5      -6.4182  25.4604  18.7717   H         1 RES1   0.0000
    37 H6      -5.4012  25.0644  15.9081   H         1 RES1   0.0000
    38 H7      -5.5428  22.6927  16.4277   H         1 RES1   0.0000
    39 H8      -4.8553  23.4361  17.9083   H         1 RES1   0.0000
    40 H9      -4.7748  21.5213  18.6941   H         1 RES1   0.0000
    41 H10     -4.6339  22.0585  21.1595   H         1 RES1   0.0000
    42 H11     -8.8229  19.6444  23.6226   H         1 RES1   0.0000
    43 H12     -5.5311  19.8614  24.7981   H         1 RES1   0.0000
    44 H13     -4.5884  27.0867  17.2817   H         1 RES1   0.0000
    45 H14     -5.5634  27.9562  16.5838   H         1 RES1   0.0000
    46 H15    -14.2001  27.8099  17.4654   H         1 RES1   0.0000
    47 H16    -13.6608  27.1826  15.8853   H         1 RES1   0.0000
    48 ****   -12.5879  28.1018  19.1798   Du        1 RES1   0.0000
    49 ****    -8.6425  27.2198  18.6289   Du        1 RES1   0.0000
    50 ****   -11.8992  26.4318  14.6247   Du        1 RES1   0.0000
    51 ****    -8.0481  24.4676  16.9717   Du        1 RES1   0.0000
    52 ****    -7.5434  24.3510  15.4231   Du        1 RES1   0.0000
    53 ****    -7.4285  20.1581  19.2159   Du        1 RES1   0.0000
    54 ****    -8.4955  21.2221  20.0698   Du        1 RES1   0.0000
    55 ****    -5.2056  20.6402  19.9486   Du        1 RES1   0.0000
    56 ****    -4.6036  22.1448  20.1493   Du        1 RES1   0.0000
    57 ****    -7.0272  24.6464  22.7870   Du        1 RES1   0.0000
    58 ****    -6.5362  23.5485  24.0333   Du        1 RES1   0.0000
    59 ****    -4.7444  21.5366  22.6599   Du        1 RES1   0.0000
    60 ****    -4.3578  23.0906  22.3403   Du        1 RES1   0.0000
    61 ****    -8.3306  21.9767  25.3360   Du        1 RES1   0.0000
    62 ****    -6.8219  22.7479  24.9768   Du        1 RES1   0.0000
    63 ****    -8.3461  19.6486  25.1406   Du        1 RES1   0.0000
    64 ****    -7.5366  18.7919  24.0103   Du        1 RES1   0.0000
    65 ****    -5.0586  21.2963  24.2950   Du        1 RES1   0.0000
    66 ****    -5.2563  20.0633  23.2428   Du        1 RES1   0.0000
    67 ****    -4.0682  25.7301  17.9276   Du        1 RES1   0.0000
    68 ****    -4.7021  26.9129  18.8581   Du        1 RES1   0.0000
    69 ****    -6.3525  28.7323  17.7264   Du        1 RES1   0.0000
    70 ****    -6.9753  28.5942  16.2232   Du        1 RES1   0.0000
@<TRIPOS>BOND
     1     1     2   ar
     2     2     3   ar
     3     3     4   ar
     4     4     5   ar
     5     5     6   ar
     6     1     6   ar
     7     5     7   ar
     8     7     8   ar
     9     8     9   ar
    10     4     9   ar
    11     7    10    1
    12    10    11    1
    13    11    12    1
    14    12    13    1
    15    13    14    1
    16    10    14    1
    17    13    15    1
    18    15    16    1
    19    16    17    1
    20    17    18    2
    21    17    19    1
    22    17    20    1
    23    20    21    1
    24    21    22    2
    25    21    23    1
    26    21    24    1
    27    24    25    1
    28    25    26    2
    29    25    27    1
    30    25    28    1
    31    12    29    1
    32    11    30    1
    33     3    31    1
    34     1    32    1
    35     8    33    1
    36    10    34    1
    37    11    35    1
    38    12    36    1
    39    13    37    1
    40    15    38    1
    41    15    39    1
    42    19    40    1
    43    23    41    1
    44    27    42    1
    45    28    43    1
    46    29    44    1
    47    30    45    1
    48    31    46    1
    49    31    47    1
    50     2    48    1
    51     6    49    1
    52     9    50    1
    53    14    51    1
    54    14    52    1
    55    18    53    1
    56    18    54    1
    57    19    55    1
    58    19    56    1
    59    22    57    1
    60    22    58    1
    61    23    59    1
    62    23    60    1
    63    26    61    1
    64    26    62    1
    65    27    63    1
    66    27    64    1
    67    28    65    1
    68    28    66    1
    69    29    67    1
    70    29    68    1
    71    30    69    1
    72    30    70    1
@<TRIPOS>SUBSTRUCTURE
     1 RES1        1 GROUP             0 ****  ****    0  
@<TRIPOS>MOLECULE
36.3051
    70    72     1     0     0
SMALL
NO_CHARGES
****
Generated from the CSD

@<TRIPOS>ATOM
     1 C       -3.1971  22.5238  16.0010   C.ar      1 RES1   0.0000
     2 N       -2.8127  22.7983  14.7330   N.ar      1 RES1   0.0000
     3 C       -3.5184  23.6360  13.9443   C.ar      1 RES1   0.0000
     4 C       -4.6629  24.2087  14.4917   C.ar      1 RES1   0.0000
     5 C       -5.0361  23.9042  15.7911   C.ar      1 RES1   0.0000
     6 N       -4.3044  23.0693  16.5482   N.ar      1 RES1   0.0000
     7 N       -6.1715  24.5821  16.0306   N.ar      1 RES1   0.0000
     8 C       -6.5023  25.2986  14.9369   C.ar      1 RES1   0.0000
     9 N       -5.5695  25.0673  13.9899   N.ar      1 RES1   0.0000
    10 C       -6.8731  24.5638  17.1976   C.3       1 RES1   0.0000
    11 C       -6.5124  25.7350  18.1369   C.3       1 RES1   0.0000
    12 C       -7.8735  26.1836  18.7155   C.3       1 RES1   0.0000
    13 C       -8.8544  25.1083  18.2038   C.3       1 RES1   0.0000
    14 O       -8.2664  24.7555  16.9503   O.3       1 RES1   0.0000
    15 C      -10.2930  25.6338  18.0116   C.3       1 RES1   0.0000
    16 O      -10.3702  27.0206  18.3636   O.3       1 RES1   0.0000
    17 P      -10.7528  27.5112  19.8388   P.3       1 RES1   0.0000
    18 O      -11.0645  26.3169  20.6737   O.2       1 RES1   0.0000
    19 O       -9.5167  28.2939  20.4860   O.3       1 RES1   0.0000
    20 O      -12.0261  28.4788  19.7527   O.3       1 RES1   0.0000
    21 P      -13.3924  27.6581  19.9012   P.3       1 RES1   0.0000
    22 O      -13.5628  27.2588  21.3265   O.2       1 RES1   0.0000
    23 O      -13.3321  26.3489  18.9834   O.3       1 RES1   0.0000
    24 O      -14.6203  28.5859  19.4574   O.3       1 RES1   0.0000
    25 P      -15.9318  28.3142  20.3356   P.3       1 RES1   0.0000
    26 O      -16.3588  26.8941  20.1897   O.2       1 RES1   0.0000
    27 O      -15.6512  28.6326  21.8788   O.3       1 RES1   0.0000
    28 O      -17.1079  29.2669  19.8173   O.3       1 RES1   0.0000
    29 O       -7.8397  26.2408  20.1464   O.3       1 RES1   0.0000
    30 O       -5.6271  25.2985  19.1748   O.3       1 RES1   0.0000
    31 N       -3.1358  23.9089  12.6784   N.pl3     1 RES1   0.0000
    32 H1      -2.5975  21.8448  16.5960   H         1 RES1   0.0000
    33 H2      -7.3653  25.9466  14.8334   H         1 RES1   0.0000
    34 H3      -6.7406  23.6072  17.7266   H         1 RES1   0.0000
    35 H4      -6.0619  26.5661  17.5717   H         1 RES1   0.0000
    36 H5      -8.1378  27.1639  18.2890   H         1 RES1   0.0000
    37 H6      -8.8420  24.2409  18.8816   H         1 RES1   0.0000
    38 H7     -10.6004  25.5192  16.9618   H         1 RES1   0.0000
    39 H8     -10.9786  25.0616  18.6544   H         1 RES1   0.0000
    40 H9      -9.8384  29.0326  20.9892   H         1 RES1   0.0000
    41 H10    -14.0255  25.7513  19.2378   H         1 RES1   0.0000
    42 H11    -14.9114  29.2230  21.9591   H         1 RES1   0.0000
    43 H12    -17.8665  29.1701  20.3809   H         1 RES1   0.0000
    44 H13     -8.0403  27.1186  20.4502   H         1 RES1   0.0000
    45 H14     -4.7802  25.0662  18.8108   H         1 RES1   0.0000
    46 H15     -2.2857  23.4729  12.2936   H         1 RES1   0.0000
    47 H16     -3.6926  24.5512  12.0964   H         1 RES1   0.0000
    48 ****    -1.9849  22.3696  14.3711   Du        1 RES1   0.0000
    49 ****    -4.5718  22.8583  17.4884   Du        1 RES1   0.0000
    50 ****    -5.5544  25.4655  13.0727   Du        1 RES1   0.0000
    51 ****    -8.4017  25.4905  16.2859   Du        1 RES1   0.0000
    52 ****    -8.6750  23.9119  16.6019   Du        1 RES1   0.0000
    53 ****   -10.3280  25.7111  20.9746   Du        1 RES1   0.0000
    54 ****   -12.0103  26.1212  20.9331   Du        1 RES1   0.0000
    55 ****    -8.9132  28.6228  19.7596   Du        1 RES1   0.0000
    56 ****    -9.0092  27.6767  21.0871   Du        1 RES1   0.0000
    57 ****   -12.8840  27.5340  22.0074   Du        1 RES1   0.0000
    58 ****   -14.3558  26.7157  21.6023   Du        1 RES1   0.0000
    59 ****   -12.4460  25.9003  19.1005   Du        1 RES1   0.0000
    60 ****   -13.4504  26.6080  18.0249   Du        1 RES1   0.0000
    61 ****   -17.0645  26.6500  19.5246   Du        1 RES1   0.0000
    62 ****   -15.9396  26.1851  20.7569   Du        1 RES1   0.0000
    63 ****   -15.4488  27.7804  22.3614   Du        1 RES1   0.0000
    64 ****   -16.4608  29.0595  22.2815   Du        1 RES1   0.0000
    65 ****   -17.3536  29.0138  18.8815   Du        1 RES1   0.0000
    66 ****   -16.7987  30.2177  19.8352   Du        1 RES1   0.0000
    67 ****    -6.9272  25.9833  20.4643   Du        1 RES1   0.0000
    68 ****    -8.5142  25.6024  20.5170   Du        1 RES1   0.0000
    69 ****    -6.0209  24.4997  19.6297   Du        1 RES1   0.0000
    70 ****    -5.5093  26.0362  19.8395   Du        1 RES1   0.0000
@<TRIPOS>BOND
     1     1     2   ar
     2     2     3   ar
     3     3     4   ar
     4     4     5   ar
     5     5     6   ar
     6     1     6   ar
     7     5     7   ar
     8     7     8   ar
     9     8     9   ar
    10     4     9   ar
    11     7    10    1
    12    10    11    1
    13    11    12    1
    14    12    13    1
    15    13    14    1
    16    10    14    1
    17    13    15    1
    18    15    16    1
    19    16    17    1
    20    17    18    2
    21    17    19    1
    22    17    20    1
    23    20    21    1
    24    21    22    2
    25    21    23    1
    26    21    24    1
    27    24    25    1
    28    25    26    2
    29    25    27    1
    30    25    28    1
    31    12    29    1
    32    11    30    1
    33     3    31    1
    34     1    32    1
    35     8    33    1
    36    10    34    1
    37    11    35    1
    38    12    36    1
    39    13    37    1
    40    15    38    1
    41    15    39    1
    42    19    40    1
    43    23    41    1
    44    27    42    1
    45    28    43    1
    46    29    44    1
    47    30    45    1
    48    31    46    1
    49    31    47    1
    50     2    48    1
    51     6    49    1
    52     9    50    1
    53    14    51    1
    54    14    52    1
    55    18    53    1
    56    18    54    1
    57    19    55    1
    58    19    56    1
    59    22    57    1
    60    22    58    1
    61    23    59    1
    62    23    60    1
    63    26    61    1
    64    26    62    1
    65    27    63    1
    66    27    64    1
    67    28    65    1
    68    28    66    1
    69    29    67    1
    70    29    68    1
    71    30    69    1
    72    30    70    1
@<TRIPOS>SUBSTRUCTURE
     1 RES1        1 GROUP             0 ****  ****    0  
@<TRIPOS>MOLECULE
35.8025
    70    72     1     0     0
SMALL
NO_CHARGES
****
Generated from the CSD

@<TRIPOS>ATOM
     1 C       -5.4200  21.7757  16.7491   C.ar      1 RES1   0.0000
     2 N       -4.1891  21.4035  16.3285   N.ar      1 RES1   0.0000
     3 C       -3.4931  22.1384  15.4356   C.ar      1 RES1   0.0000
     4 C       -4.0965  23.3004  14.9633   C.ar      1 RES1   0.0000
     5 C       -5.3610  23.6536  15.4068   C.ar      1 RES1   0.0000
     6 N       -6.0211  22.8989  16.3014   N.ar      1 RES1   0.0000
     7 N       -5.6829  24.7940  14.7728   N.ar      1 RES1   0.0000
     8 C       -4.6634  25.1606  13.9694   C.ar      1 RES1   0.0000
     9 N       -3.6861  24.2383  14.0899   N.ar      1 RES1   0.0000
    10 C       -6.8475  25.4830  14.9257   C.3       1 RES1   0.0000
    11 C       -8.0821  24.6983  14.4318   C.3       1 RES1   0.0000
    12 C       -9.1622  24.9901  15.4980   C.3       1 RES1   0.0000
    13 C       -8.5054  26.0625  16.3919   C.3       1 RES1   0.0000
    14 O       -7.1258  25.7003  16.3093   O.3       1 RES1   0.0000
    15 C       -9.0000  26.0276  17.8537   C.3       1 RES1   0.0000
    16 O       -8.5780  24.8182  18.4959   O.3       1 RES1   0.0000
    17 P       -9.2059  24.3184  19.8813   P.3       1 RES1   0.0000
    18 O       -8.4436  23.1263  20.3488   O.2       1 RES1   0.0000
    19 O       -9.0885  25.4775  20.9776   O.3       1 RES1   0.0000
    20 O      -10.7448  23.9404  19.6500   O.3       1 RES1   0.0000
    21 P      -11.5625  23.9596  21.0260   P.3       1 RES1   0.0000
    22 O      -10.8346  23.1350  22.0311   O.2       1 RES1   0.0000
    23 O      -13.0218  23.3478  20.7893   O.3       1 RES1   0.0000
    24 O      -11.6763  25.4670  21.5554   O.3       1 RES1   0.0000
    25 P      -13.1936  25.9773  21.6057   P.3       1 RES1   0.0000
    26 O      -13.9648  25.1879  22.6069   O.2       1 RES1   0.0000
    27 O      -13.2522  27.5302  21.9887   O.3       1 RES1   0.0000
    28 O      -13.8551  25.7758  20.1631   O.3       1 RES1   0.0000
    29 O      -10.3746  25.4615  14.8983   O.3       1 RES1   0.0000
    30 O       -8.4925  25.1596  13.1394   O.3       1 RES1   0.0000
    31 N       -2.2652  21.7663  15.0147   N.pl3     1 RES1   0.0000
    32 H1      -5.9400  21.1529  17.4677   H         1 RES1   0.0000
    33 H2      -4.6321  26.0403  13.3366   H         1 RES1   0.0000
    34 H3      -6.8006  26.4606  14.4211   H         1 RES1   0.0000
    35 H4      -7.8746  23.6170  14.4059   H         1 RES1   0.0000
    36 H5      -9.3432  24.0751  16.0836   H         1 RES1   0.0000
    37 H6      -8.6590  27.0593  15.9506   H         1 RES1   0.0000
    38 H7      -8.5923  26.8835  18.4115   H         1 RES1   0.0000
    39 H8     -10.0991  26.0766  17.8675   H         1 RES1   0.0000
    40 H9      -8.6568  26.2323  20.5951   H         1 RES1   0.0000
    41 H10    -13.5069  23.3598  21.6061   H         1 RES1   0.0000
    42 H11    -13.4712  27.6298  22.9076   H         1 RES1   0.0000
    43 H12    -13.1812  25.8250  19.4952   H         1 RES1   0.0000
    44 H13    -10.1900  25.9124  14.0823   H         1 RES1   0.0000
    45 H14     -9.0539  24.5161  12.7216   H         1 RES1   0.0000
    46 H15     -1.8383  20.9018  15.3768   H         1 RES1   0.0000
    47 H16     -1.7549  22.3445  14.3315   H         1 RES1   0.0000
    48 ****    -3.7847  20.5626  16.6882   Du        1 RES1   0.0000
    49 ****    -6.9300  23.1610  16.6258   Du        1 RES1   0.0000
    50 ****    -2.8076  24.2498  13.6122   Du        1 RES1   0.0000
    51 ****    -6.9558  24.8647  16.8316   Du        1 RES1   0.0000
    52 ****    -6.5527  26.4384  16.6655   Du        1 RES1   0.0000
    53 ****    -8.8131  22.2083  20.2044   Du        1 RES1   0.0000
    54 ****    -7.5626  23.2442  20.8069   Du        1 RES1   0.0000
    55 ****    -8.5548  25.1472  21.7561   Du        1 RES1   0.0000
    56 ****   -10.0032  25.7378  21.2869   Du        1 RES1   0.0000
    57 ****   -10.8321  23.4068  22.9935   Du        1 RES1   0.0000
    58 ****   -10.3487  22.3097  21.7433   Du        1 RES1   0.0000
    59 ****   -12.9395  22.4057  20.4643   Du        1 RES1   0.0000
    60 ****   -13.5058  23.8949  20.1063   Du        1 RES1   0.0000
    61 ****   -13.5537  24.9629  23.4903   Du        1 RES1   0.0000
    62 ****   -14.8934  24.8832  22.3955   Du        1 RES1   0.0000
    63 ****   -13.9483  27.9828  21.4314   Du        1 RES1   0.0000
    64 ****   -12.3610  27.9485  21.8134   Du        1 RES1   0.0000
    65 ****   -14.5340  26.4927  20.0048   Du        1 RES1   0.0000
    66 ****   -14.2996  24.8810  20.1225   Du        1 RES1   0.0000
    67 ****   -10.8289  26.0925  15.5271   Du        1 RES1   0.0000
    68 ****   -10.9753  24.6833  14.7153   Du        1 RES1   0.0000
    69 ****    -7.6837  25.3102  12.5709   Du        1 RES1   0.0000
    70 ****    -8.9940  26.0189  13.2399   Du        1 RES1   0.0000
@<TRIPOS>BOND
     1     1     2   ar
     2     2     3   ar
     3     3     4   ar
     4     4     5   ar
     5     5     6   ar
     6     1     6   ar
     7     5     7   ar
     8     7     8   ar
     9     8     9   ar
    10     4     9   ar
    11     7    10    1
    12    10    11    1
    13    11    12    1
    14    12    13    1
    15    13    14    1
    16    10    14    1
    17    13    15    1
    18    15    16    1
    19    16    17    1
    20    17    18    2
    21    17    19    1
    22    17    20    1
    23    20    21    1
    24    21    22    2
    25    21    23    1
    26    21    24    1
    27    24    25    1
    28    25    26    2
    29    25    27    1
    30    25    28    1
    31    12    29    1
    32    11    30    1
    33     3    31    1
    34     1    32    1
    35     8    33    1
    36    10    34    1
    37    11    35    1
    38    12    36    1
    39    13    37    1
    40    15    38    1
    41    15    39    1
    42    19    40    1
    43    23    41    1
    44    27    42    1
    45    28    43    1
    46    29    44    1
    47    30    45    1
    48    31    46    1
    49    31    47    1
    50     2    48    1
    51     6    49    1
    52     9    50    1
    53    14    51    1
    54    14    52    1
    55    18    53    1
    56    18    54    1
    57    19    55    1
    58    19    56    1
    59    22    57    1
    60    22    58    1
    61    23    59    1
    62    23    60    1
    63    26    61    1
    64    26    62    1
    65    27    63    1
    66    27    64    1
    67    28    65    1
    68    28    66    1
    69    29    67    1
    70    29    68    1
    71    30    69    1
    72    30    70    1
@<TRIPOS>SUBSTRUCTURE
     1 RES1        1 GROUP             0 ****  ****    0  
@<TRIPOS>MOLECULE
35.6221
    70    72     1     0     0
SMALL
NO_CHARGES
****
Generated from the CSD

@<TRIPOS>ATOM
     1 C       -6.7726  24.4007  14.8600   C.ar      1 RES1   0.0000
     2 N       -6.7929  24.7662  16.1626   N.ar      1 RES1   0.0000
     3 C       -5.6675  24.7991  16.9069   C.ar      1 RES1   0.0000
     4 C       -4.4797  24.4400  16.2764   C.ar      1 RES1   0.0000
     5 C       -4.4898  24.0636  14.9427   C.ar      1 RES1   0.0000
     6 N       -5.6302  24.0486  14.2322   N.ar      1 RES1   0.0000
     7 N       -3.2203  23.7612  14.6221   N.ar      1 RES1   0.0000
     8 C       -2.4314  23.9488  15.6998   C.ar      1 RES1   0.0000
     9 N       -3.2105  24.3686  16.7181   N.ar      1 RES1   0.0000
    10 C       -2.7905  23.3452  13.3987   C.3       1 RES1   0.0000
    11 C       -2.9539  24.4215  12.3037   C.3       1 RES1   0.0000
    12 C       -1.6562  24.3093  11.4720   C.3       1 RES1   0.0000
    13 C       -0.9649  23.0570  12.0501   C.3       1 RES1   0.0000
    14 O       -1.3835  23.1018  13.4155   O.3       1 RES1   0.0000
    15 C        0.5742  23.1023  11.9415   C.3       1 RES1   0.0000
    16 O        1.0280  22.2306  10.8988   O.3       1 RES1   0.0000
    17 P        2.3668  21.3622  11.0286   P.3       1 RES1   0.0000
    18 O        2.5160  20.5280   9.8029   O.2       1 RES1   0.0000
    19 O        3.6312  22.3339  11.1574   O.3       1 RES1   0.0000
    20 O        2.2604  20.4310  12.3271   O.3       1 RES1   0.0000
    21 P        3.6474  19.6907  12.6283   P.3       1 RES1   0.0000
    22 O        4.1962  20.2001  13.9165   O.2       1 RES1   0.0000
    23 O        4.6839  19.9965  11.4483   O.3       1 RES1   0.0000
    24 O        3.3938  18.1135  12.7438   O.3       1 RES1   0.0000
    25 P        4.7369  17.3079  13.0787   P.3       1 RES1   0.0000
    26 O        5.2159  17.6596  14.4451   O.2       1 RES1   0.0000
    27 O        4.4832  15.7301  12.9903   O.3       1 RES1   0.0000
    28 O        5.8607  17.7108  12.0137   O.3       1 RES1   0.0000
    29 O       -1.9412  24.1675  10.0753   O.3       1 RES1   0.0000
    30 O       -4.1089  24.1554  11.4995   O.3       1 RES1   0.0000
    31 N       -5.6879  25.1624  18.2073   N.pl3     1 RES1   0.0000
    32 H1      -7.7023  24.3900  14.3030   H         1 RES1   0.0000
    33 H2      -1.3597  23.7904  15.7436   H         1 RES1   0.0000
    34 H3      -3.3015  22.4196  13.0910   H         1 RES1   0.0000
    35 H4      -3.0189  25.4267  12.7489   H         1 RES1   0.0000
    36 H5      -1.0342  25.1989  11.6578   H         1 RES1   0.0000
    37 H6      -1.3650  22.1537  11.5642   H         1 RES1   0.0000
    38 H7       0.9074  24.1258  11.7150   H         1 RES1   0.0000
    39 H8       1.0162  22.7804  12.8963   H         1 RES1   0.0000
    40 H9       3.7241  22.8398  10.3587   H         1 RES1   0.0000
    41 H10      4.5914  19.3405  10.7674   H         1 RES1   0.0000
    42 H11      5.1381  15.3268  12.4328   H         1 RES1   0.0000
    43 H12      6.6371  17.1821  12.1561   H         1 RES1   0.0000
    44 H13     -2.7708  24.5784   9.8606   H         1 RES1   0.0000
    45 H14     -4.7839  24.8038  11.6657   H         1 RES1   0.0000
    46 H15     -6.5786  25.4233  18.6537   H         1 RES1   0.0000
    47 H16     -4.8148  25.1784  18.7540   H         1 RES1   0.0000
    48 ****    -7.6638  25.0183  16.5844   Du        1 RES1   0.0000
    49 ****    -5.6328  23.7846  13.2676   Du        1 RES1   0.0000
    50 ****    -2.8985  24.5887  17.6423   Du        1 RES1   0.0000
    51 ****    -0.9108  23.8392  13.8980   Du        1 RES1   0.0000
    52 ****    -1.1887  22.2303  13.8656   Du        1 RES1   0.0000
    53 ****     2.7953  20.9512   8.9410   Du        1 RES1   0.0000
    54 ****     2.3368  19.5450   9.8422   Du        1 RES1   0.0000
    55 ****     4.4567  21.7891  11.3048   Du        1 RES1   0.0000
    56 ****     3.4981  22.9535  11.9309   Du        1 RES1   0.0000
    57 ****     4.1628  19.6273  14.7355   Du        1 RES1   0.0000
    58 ****     4.5979  21.1147  13.9621   Du        1 RES1   0.0000
    59 ****     5.6162  19.9731  11.8092   Du        1 RES1   0.0000
    60 ****     4.4968  20.9017  11.0667   Du        1 RES1   0.0000
    61 ****     5.7806  17.0135  14.9587   Du        1 RES1   0.0000
    62 ****     4.9728  18.5417  14.8486   Du        1 RES1   0.0000
    63 ****     3.5743  15.5616  12.6089   Du        1 RES1   0.0000
    64 ****     4.5388  15.3338  13.9067   Du        1 RES1   0.0000
    65 ****     6.0915  18.6777  12.1227   Du        1 RES1   0.0000
    66 ****     5.5151  17.5528  11.0888   Du        1 RES1   0.0000
    67 ****    -1.9869  23.1951   9.8462   Du        1 RES1   0.0000
    68 ****    -1.2125  24.6010   9.5453   Du        1 RES1   0.0000
    69 ****    -4.4628  23.2467  11.7211   Du        1 RES1   0.0000
    70 ****    -3.8524  24.1867  10.5335   Du        1 RES1   0.0000
@<TRIPOS>BOND
     1     1     2   ar
     2     2     3   ar
     3     3     4   ar
     4     4     5   ar
     5     5     6   ar
     6     1     6   ar
     7     5     7   ar
     8     7     8   ar
     9     8     9   ar
    10     4     9   ar
    11     7    10    1
    12    10    11    1
    13    11    12    1
    14    12    13    1
    15    13    14    1
    16    10    14    1
    17    13    15    1
    18    15    16    1
    19    16    17    1
    20    17    18    2
    21    17    19    1
    22    17    20    1
    23    20    21    1
    24    21    22    2
    25    21    23    1
    26    21    24    1
    27    24    25    1
    28    25    26    2
    29    25    27    1
    30    25    28    1
    31    12    29    1
    32    11    30    1
    33     3    31    1
    34     1    32    1
    35     8    33    1
    36    10    34    1
    37    11    35    1
    38    12    36    1
    39    13    37    1
    40    15    38    1
    41    15    39    1
    42    19    40    1
    43    23    41    1
    44    27    42    1
    45    28    43    1
    46    29    44    1
    47    30    45    1
    48    31    46    1
    49    31    47    1
    50     2    48    1
    51     6    49    1
    52     9    50    1
    53    14    51    1
    54    14    52    1
    55    18    53    1
    56    18    54    1
    57    19    55    1
    58    19    56    1
    59    22    57    1
    60    22    58    1
    61    23    59    1
    62    23    60    1
    63    26    61    1
    64    26    62    1
    65    27    63    1
    66    27    64    1
    67    28    65    1
    68    28    66    1
    69    29    67    1
    70    29    68    1
    71    30    69    1
    72    30    70    1
@<TRIPOS>SUBSTRUCTURE
     1 RES1        1 GROUP             0 ****  ****    0  
@<TRIPOS>MOLECULE
35.0748
    70    72     1     0     0
SMALL
NO_CHARGES
****
Generated from the CSD

@<TRIPOS>ATOM
     1 C       -2.9636  21.8850  16.0080   C.ar      1 RES1   0.0000
     2 N       -3.6637  22.7844  16.7371   N.ar      1 RES1   0.0000
     3 C       -3.9875  23.9982  16.2436   C.ar      1 RES1   0.0000
     4 C       -3.5699  24.2878  14.9478   C.ar      1 RES1   0.0000
     5 C       -2.8485  23.3496  14.2267   C.ar      1 RES1   0.0000
     6 N       -2.5497  22.1486  14.7501   N.ar      1 RES1   0.0000
     7 N       -2.5754  23.9110  13.0366   N.ar      1 RES1   0.0000
     8 C       -3.1101  25.1484  12.9940   C.ar      1 RES1   0.0000
     9 N       -3.7238  25.3776  14.1734   N.ar      1 RES1   0.0000
    10 C       -1.8816  23.3214  12.0240   C.3       1 RES1   0.0000
    11 C       -1.9202  24.1352  10.7123   C.3       1 RES1   0.0000
    12 C       -0.4805  24.0251  10.1611   C.3       1 RES1   0.0000
    13 C        0.1895  23.0049  11.1048   C.3       1 RES1   0.0000
    14 O       -0.4892  23.2624  12.3354   O.3       1 RES1   0.0000
    15 C        1.7107  23.2188  11.2567   C.3       1 RES1   0.0000
    16 O        2.1555  22.7556  12.5376   O.3       1 RES1   0.0000
    17 P        2.9695  21.3891  12.7204   P.3       1 RES1   0.0000
    18 O        4.3247  21.7077  13.2523   O.2       1 RES1   0.0000
    19 O        2.2086  20.4415  13.7607   O.3       1 RES1   0.0000
    20 O        3.0859  20.6576  11.3005   O.3       1 RES1   0.0000
    21 P        2.0633  19.4308  11.1918   P.3       1 RES1   0.0000
    22 O        2.1627  18.8395   9.8278   O.2       1 RES1   0.0000
    23 O        0.5718  19.9546  11.4394   O.3       1 RES1   0.0000
    24 O        2.4459  18.3219  12.2824   O.3       1 RES1   0.0000
    25 P        1.5678  16.9917  12.1260   P.3       1 RES1   0.0000
    26 O        1.8035  16.3787  10.7885   O.2       1 RES1   0.0000
    27 O        1.9372  15.9361  13.2709   O.3       1 RES1   0.0000
    28 O        0.0202  17.3753  12.2569   O.3       1 RES1   0.0000
    29 O       -0.4749  23.5798   8.7996   O.3       1 RES1   0.0000
    30 O       -2.8693  23.5765   9.7967   O.3       1 RES1   0.0000
    31 N       -4.6849  24.8965  16.9716   N.pl3     1 RES1   0.0000
    32 H1      -2.7275  20.9227  16.4474   H         1 RES1   0.0000
    33 H2      -3.0573  25.8399  12.1606   H         1 RES1   0.0000
    34 H3      -2.2417  22.2975  11.8382   H         1 RES1   0.0000
    35 H4      -2.1564  25.1919  10.9136   H         1 RES1   0.0000
    36 H5       0.0149  25.0040  10.2565   H         1 RES1   0.0000
    37 H6      -0.0295  21.9818  10.7622   H         1 RES1   0.0000
    38 H7       2.2504  22.6646  10.4748   H         1 RES1   0.0000
    39 H8       1.9387  24.2911  11.1637   H         1 RES1   0.0000
    40 H9       2.1652  20.8709  14.6069   H         1 RES1   0.0000
    41 H10      0.4464  20.1284  12.3649   H         1 RES1   0.0000
    42 H11      2.5844  16.3078  13.8585   H         1 RES1   0.0000
    43 H12     -0.3847  17.3591  11.3977   H         1 RES1   0.0000
    44 H13     -1.2762  23.1099   8.5988   H         1 RES1   0.0000
    45 H14     -3.6415  23.2765  10.2630   H         1 RES1   0.0000
    46 H15     -4.9830  24.6612  17.9290   H         1 RES1   0.0000
    47 H16     -4.9188  25.8170  16.5721   H         1 RES1   0.0000
    48 ****    -3.9483  22.5438  17.6650   Du        1 RES1   0.0000
    49 ****    -2.0363  21.4707  14.2240   Du        1 RES1   0.0000
    50 ****    -4.2096  26.2137  14.4284   Du        1 RES1   0.0000
    51 ****    -0.1844  24.1324  12.7229   Du        1 RES1   0.0000
    52 ****    -0.3119  22.5262  12.9886   Du        1 RES1   0.0000
    53 ****     4.4896  21.6984  14.2386   Du        1 RES1   0.0000
    54 ****     5.0691  21.9308  12.6230   Du        1 RES1   0.0000
    55 ****     2.7052  19.5781  13.8501   Du        1 RES1   0.0000
    56 ****     1.2821  20.2605  13.4308   Du        1 RES1   0.0000
    57 ****     2.9708  19.0135   9.2651   Du        1 RES1   0.0000
    58 ****     1.4212  18.2687   9.4751   Du        1 RES1   0.0000
    59 ****    -0.0801  19.2579  11.1398   Du        1 RES1   0.0000
    60 ****     0.4233  20.7956  10.9192   Du        1 RES1   0.0000
    61 ****     2.3943  15.5764  10.7033   Du        1 RES1   0.0000
    62 ****     1.3709  16.7696   9.9760   Du        1 RES1   0.0000
    63 ****     2.3082  15.1080  12.8507   Du        1 RES1   0.0000
    64 ****     1.1129  15.7068  13.7885   Du        1 RES1   0.0000
    65 ****    -0.0640  18.2919  12.6477   Du        1 RES1   0.0000
    66 ****    -0.4373  16.7155  12.8532   Du        1 RES1   0.0000
    67 ****     0.3069  22.9733   8.6552   Du        1 RES1   0.0000
    68 ****    -0.3982  24.3724   8.1947   Du        1 RES1   0.0000
    69 ****    -2.4514  22.8034   9.3194   Du        1 RES1   0.0000
    70 ****    -3.1360  24.2741   9.1317   Du        1 RES1   0.0000
@<TRIPOS>BOND
     1     1     2   ar
     2     2     3   ar
     3     3     4   ar
     4     4     5   ar
     5     5     6   ar
     6     1     6   ar
     7     5     7   ar
     8     7     8   ar
     9     8     9   ar
    10     4     9   ar
    11     7    10    1
    12    10    11    1
    13    11    12    1
    14    12    13    1
    15    13    14    1
    16    10    14    1
    17    13    15    1
    18    15    16    1
    19    16    17    1
    20    17    18    2
    21    17    19    1
    22    17    20    1
    23    20    21    1
    24    21    22    2
    25    21    23    1
    26    21    24    1
    27    24    25    1
    28    25    26    2
    29    25    27    1
    30    25    28    1
    31    12    29    1
    32    11    30    1
    33     3    31    1
    34     1    32    1
    35     8    33    1
    36    10    34    1
    37    11    35    1
    38    12    36    1
    39    13    37    1
    40    15    38    1
    41    15    39    1
    42    19    40    1
    43    23    41    1
    44    27    42    1
    45    28    43    1
    46    29    44    1
    47    30    45    1
    48    31    46    1
    49    31    47    1
    50     2    48    1
    51     6    49    1
    52     9    50    1
    53    14    51    1
    54    14    52    1
    55    18    53    1
    56    18    54    1
    57    19    55    1
    58    19    56    1
    59    22    57    1
    60    22    58    1
    61    23    59    1
    62    23    60    1
    63    26    61    1
    64    26    62    1
    65    27    63    1
    66    27    64    1
    67    28    65    1
    68    28    66    1
    69    29    67    1
    70    29    68    1
    71    30    69    1
    72    30    70    1
@<TRIPOS>SUBSTRUCTURE
     1 RES1        1 GROUP             0 ****  ****    0  
@<TRIPOS>MOLECULE
31.0133
    70    72     1     0     0
SMALL
NO_CHARGES
****
Generated from the CSD

@<TRIPOS>ATOM
     1 C       -2.3187  11.0091  23.5036   C.ar      1 RES1   0.0000
     2 N       -1.3298  10.1258  23.7733   N.ar      1 RES1   0.0000
     3 C       -1.0542   9.0962  22.9453   C.ar      1 RES1   0.0000
     4 C       -1.8326   8.9800  21.7972   C.ar      1 RES1   0.0000
     5 C       -2.8430   9.8957  21.5499   C.ar      1 RES1   0.0000
     6 N       -3.0841  10.9117  22.3956   N.ar      1 RES1   0.0000
     7 N       -3.4225   9.5220  20.3964   N.ar      1 RES1   0.0000
     8 C       -2.8011   8.4236  19.9205   C.ar      1 RES1   0.0000
     9 N       -1.8203   8.0924  20.7858   N.ar      1 RES1   0.0000
    10 C       -4.4635  10.1580  19.7912   C.3       1 RES1   0.0000
    11 C       -5.8021   9.4034  19.9431   C.3       1 RES1   0.0000
    12 C       -6.8337  10.5220  20.2132   C.3       1 RES1   0.0000
    13 C       -6.0242  11.8179  19.9995   C.3       1 RES1   0.0000
    14 O       -4.7194  11.4146  20.4194   O.3       1 RES1   0.0000
    15 C       -6.5348  13.0049  20.8439   C.3       1 RES1   0.0000
    16 O       -5.7166  14.1612  20.6278   O.3       1 RES1   0.0000
    17 P       -6.3285  15.5768  20.1979   P.3       1 RES1   0.0000
    18 O       -7.0833  15.4042  18.9246   O.2       1 RES1   0.0000
    19 O       -7.3281  16.1007  21.3318   O.3       1 RES1   0.0000
    20 O       -5.1326  16.6232  19.9994   O.3       1 RES1   0.0000
    21 P       -5.6879  18.1102  19.7925   P.3       1 RES1   0.0000
    22 O       -6.2186  18.6120  21.0912   O.2       1 RES1   0.0000
    23 O       -6.8621  18.0960  18.7057   O.3       1 RES1   0.0000
    24 O       -4.4948  19.0596  19.3021   O.3       1 RES1   0.0000
    25 P       -4.9948  20.5499  18.9955   P.3       1 RES1   0.0000
    26 O       -4.1324  21.5344  19.7078   O.2       1 RES1   0.0000
    27 O       -4.9557  20.8438  17.4227   O.3       1 RES1   0.0000
    28 O       -6.5004  20.7070  19.5130   O.3       1 RES1   0.0000
    29 O       -7.9481  10.4325  19.3175   O.3       1 RES1   0.0000
    30 O       -6.1184   8.6857  18.7446   O.3       1 RES1   0.0000
    31 N       -0.0683   8.2138  23.2150   N.pl3     1 RES1   0.0000
    32 H1      -2.5023  11.8201  24.1987   H         1 RES1   0.0000
    33 H2      -3.0449   7.8968  19.0049   H         1 RES1   0.0000
    34 H3      -4.2550  10.3366  18.7249   H         1 RES1   0.0000
    35 H4      -5.7700   8.7179  20.8045   H         1 RES1   0.0000
    36 H5      -7.1656  10.4571  21.2613   H         1 RES1   0.0000
    37 H6      -6.0111  12.0760  18.9294   H         1 RES1   0.0000
    38 H7      -7.5705  13.2492  20.5655   H         1 RES1   0.0000
    39 H8      -6.5003  12.7349  21.9100   H         1 RES1   0.0000
    40 H9      -7.0636  15.7493  22.1738   H         1 RES1   0.0000
    41 H10     -6.8574  18.9144  18.2232   H         1 RES1   0.0000
    42 H11     -5.8024  20.6546  17.0360   H         1 RES1   0.0000
    43 H12     -7.0973  20.6448  18.7766   H         1 RES1   0.0000
    44 H13     -7.8412   9.6979  18.7242   H         1 RES1   0.0000
    45 H14     -6.9373   8.9996  18.3777   H         1 RES1   0.0000
    46 H15      0.4946   8.3185  24.0711   H         1 RES1   0.0000
    47 H16      0.1215   7.4356  22.5670   H         1 RES1   0.0000
    48 ****    -0.7895  10.2387  24.6071   Du        1 RES1   0.0000
    49 ****    -3.8085  11.5757  22.2099   Du        1 RES1   0.0000
    50 ****    -1.1922   7.3200  20.6917   Du        1 RES1   0.0000
    51 ****    -4.6914  11.3159  21.4141   Du        1 RES1   0.0000
    52 ****    -4.0397  12.0895  20.1322   Du        1 RES1   0.0000
    53 ****    -7.4302  16.2050  18.4364   Du        1 RES1   0.0000
    54 ****    -7.2429  14.4875  18.5583   Du        1 RES1   0.0000
    55 ****    -8.2581  15.7988  21.1218   Du        1 RES1   0.0000
    56 ****    -7.3013  17.0998  21.3641   Du        1 RES1   0.0000
    57 ****    -7.1047  18.2919  21.4265   Du        1 RES1   0.0000
    58 ****    -5.6887  19.2688  21.6276   Du        1 RES1   0.0000
    59 ****    -7.7423  17.9864  19.1674   Du        1 RES1   0.0000
    60 ****    -6.7209  17.3350  18.0724   Du        1 RES1   0.0000
    61 ****    -4.1831  21.6154  20.7032   Du        1 RES1   0.0000
    62 ****    -3.5030  22.1142  19.1904   Du        1 RES1   0.0000
    63 ****    -4.2599  20.2667  16.9951   Du        1 RES1   0.0000
    64 ****    -4.7298  21.8061  17.2711   Du        1 RES1   0.0000
    65 ****    -6.6093  21.5969  19.9559   Du        1 RES1   0.0000
    66 ****    -6.7045  19.9808  20.1695   Du        1 RES1   0.0000
    67 ****    -8.0119  11.2775  18.7866   Du        1 RES1   0.0000
    68 ****    -8.7868  10.3077  19.8476   Du        1 RES1   0.0000
    69 ****    -6.2036   7.7121  18.9561   Du        1 RES1   0.0000
    70 ****    -5.3856   8.8190  18.0773   Du        1 RES1   0.0000
@<TRIPOS>BOND
     1     1     2   ar
     2     2     3   ar
     3     3     4   ar
     4     4     5   ar
     5     5     6   ar
     6     1     6   ar
     7     5     7   ar
     8     7     8   ar
     9     8     9   ar
    10     4     9   ar
    11     7    10    1
    12    10    11    1
    13    11    12    1
    14    12    13    1
    15    13    14    1
    16    10    14    1
    17    13    15    1
    18    15    16    1
    19    16    17    1
    20    17    18    2
    21    17    19    1
    22    17    20    1
    23    20    21    1
    24    21    22    2
    25    21    23    1
    26    21    24    1
    27    24    25    1
    28    25    26    2
    29    25    27    1
    30    25    28    1
    31    12    29    1
    32    11    30    1
    33     3    31    1
    34     1    32    1
    35     8    33    1
    36    10    34    1
    37    11    35    1
    38    12    36    1
    39    13    37    1
    40    15    38    1
    41    15    39    1
    42    19    40    1
    43    23    41    1
    44    27    42    1
    45    28    43    1
    46    29    44    1
    47    30    45    1
    48    31    46    1
    49    31    47    1
    50     2    48    1
    51     6    49    1
    52     9    50    1
    53    14    51    1
    54    14    52    1
    55    18    53    1
    56    18    54    1
    57    19    55    1
    58    19    56    1
    59    22    57    1
    60    22    58    1
    61    23    59    1
    62    23    60    1
    63    26    61    1
    64    26    62    1
    65    27    63    1
    66    27    64    1
    67    28    65    1
    68    28    66    1
    69    29    67    1
    70    29    68    1
    71    30    69    1
    72    30    70    1
@<TRIPOS>SUBSTRUCTURE
     1 RES1        1 GROUP             0 ****  ****    0  
